25
 energy: -42.155438080237 gnorm: 0.007928595334 xtb: 6.6.1 (8d0f1dd)
C            3.21954697934513        1.08305615899739       -0.06899384421472
N            2.29562779016460       -0.01671244378798       -0.03971143694848
C            2.56652174931226       -1.30788244869258       -0.03263151999847
N            1.42031374143054       -2.02565020875017        0.01518808729268
C            0.38211005588305       -1.14376068207014        0.04229623915094
C            0.92972461947481        0.13747797199719        0.00590302620258
C            0.13917498091180        1.31673859352942       -0.03147894747970
O           -1.52827119124956        3.27367063892199       -0.59135226524678
N           -1.16067396080917        1.02712113841515        0.02374718769112
C           -2.09820434994924        2.18418983640409       -0.00099252128838
C           -1.79222164910492       -0.21948581071481        0.10528814178856
O           -2.98001116391371       -0.35093602761458        0.17318800576064
N           -0.93955536459930       -1.34690089503432        0.09001732438244
C           -1.52537821780326       -2.67320597039282        0.11594736696607
H            3.59219916674020        1.29187743878937        0.93537942373819
H            4.06339837389804        0.85855165079175       -0.71891738080195
H            2.68814271966649        1.96136392671219       -0.43215012518282
H            3.54824323751986       -1.74076624974908       -0.05988041508306
H           -2.40265059396576        2.36650378604694        1.04771817287116
H           -0.57965178494899        3.28239182625790       -0.37381420022841
H           -2.98658645610877        1.88980383782315       -0.56878304910577
H           -1.21955115648665       -3.20686340286079        1.01598671190653
H           -1.23454325883164       -3.23385635632701       -0.77257288099956
H           -2.60806073496727       -2.55289836614975        0.12442219043268
H            1.37078798249096       -3.03558940094199        0.02736832629309
