25
 energy: -42.080594902331 gnorm: 0.006241119169 xtb: 6.6.1 (8d0f1dd)
C            3.28342570632564        1.09458735756007       -0.00387705861281
N            2.33293966985728        0.01421504718938       -0.00856313059791
C            2.60012813112532       -1.28277193549030       -0.04368220560408
N            1.45201315505039       -1.99091792173496       -0.01910721564306
C            0.41263528495410       -1.10976976710242        0.03527111864619
C            0.96479072530337        0.16541033688339        0.04269406717268
C            0.16077847034810        1.35225889565353        0.07866509532547
O            0.54381974444407        2.50125032669607        0.05605266583902
N           -1.23143520992011        1.03213271033243        0.15252502719396
C           -2.09482006413125        2.06030729948687        0.23751996994378
C           -1.79931955696259       -0.27077736195702        0.13849437252579
O           -2.98578425533381       -0.43892857710067        0.18341285268440
N           -0.91247515722730       -1.34636373759209        0.06901235677323
C           -1.44903643803424       -2.69523664090758        0.04093228948922
H            3.78080669916009        1.15679296001863        0.96522317716212
H            4.03489682795197        0.93995441566266       -0.77630412716538
H            2.75207345669842        2.02879546437405       -0.18363118576135
H            3.58144593213318       -1.71352417110594       -0.08593449194007
H           -1.68575127726690        3.05194632947848        0.25091878682561
H           -4.02115295638464        3.49759729974295       -1.46393078822262
H           -3.14486009900774        1.85013474970354        0.30076197529427
H           -1.12733638805416       -3.25329705953735        0.92062119799789
H           -1.13663503583682       -3.20873485325763       -0.86840628554768
H           -2.53551029700282       -2.61792995665372        0.04986871786866
H            1.38479444591039       -2.99889266874249       -0.03736556374705
