25
 energy: 0.000000000000 xtb: 6.6.1 (8d0f1dd)
C            3.23720132972391        1.16630909158653        0.08434468864950
N            2.29877796055224        0.07527476373246        0.03981602671198
C            2.58028186251803       -1.21425391179017        0.03006175752192
N            1.43813944744728       -1.93419254010258        0.00098261751768
C            0.39035684826767       -1.05887462812143       -0.00790371763344
C            0.93510047688824        0.21347817468824        0.01709077332874
C            0.09450143016486        1.40504290868848       -0.00410946993748
O            0.49712746915594        2.54126690785742       -0.00342325656480
N           -1.25076628431515        1.06271869620815       -0.03085477937476
C           -2.21907191394203        2.15522079838987       -0.05001256521996
C           -1.81739470187490       -0.20012724136556       -0.04692818139228
O           -2.99983858926755       -0.37846413507442       -0.07008877579474
N           -0.92618577614240       -1.30210203518959       -0.03682761236648
C           -1.46982251276835       -2.64643077634382       -0.06029819901142
H            3.71247229913541        1.21471443890471        1.06488839270555
H            4.00791460421487        1.03430799217987       -0.67357688121503
H            2.69909982127087        2.09770098766290       -0.09130154035862
H            3.56654087521359       -1.63682977417947        0.04233139674524
H           -1.67107945562430        3.09322822573871       -0.02552706696334
H           -2.82428927394145        2.09428605349656       -0.95318074103337
H           -2.87644002486466        2.07745706351925        0.81450059976605
H           -1.17061985538665       -3.19584861009707        0.83242224714061
H           -1.14560246782873       -3.17511580834413       -0.95688266944647
H           -2.55549768731684       -2.55659960601237       -0.07459039105944
H            1.38130842369251       -2.94313824728853       -0.01389874052104
25
 energy: 0.000000000000 xtb: 6.6.1 (8d0f1dd)
C            3.25600105582399        1.18710310877941        0.09351952829151
N            2.31686310071651        0.10581800688519        0.04106413869371
C            2.61235782765595       -1.22056673267521        0.03243579986074
N            1.44287231999681       -1.93298150542267       -0.00057465944189
C            0.40433170964985       -1.05612703237189       -0.01250129198467
C            0.93629491563122        0.22533283320138        0.01483132587688
C            0.09898855823084        1.39276644681823       -0.00744524644994
O            0.49425791800032        2.56000446490945       -0.00427686071662
N           -1.26713693319025        1.03987522813488       -0.03514158982035
C           -2.21168237847973        2.14907327281280       -0.05902597805013
C           -1.82961199231652       -0.22263696091729       -0.04501239534741
O           -3.02477264106686       -0.46302524173513       -0.05693066235117
N           -0.93046107244087       -1.30526978956534       -0.03765092729253
C           -1.51426901358011       -2.63150512414905       -0.05690992014478
H            3.74293063086829        1.22470130460295        1.07196811341005
H            4.02114275621300        1.05891883357798       -0.67412948982271
H            2.71286313321470        2.11548049718702       -0.07065206997081
H            3.59293070212757       -1.64202464848109        0.04918460137771
H           -1.64104610441002        3.07712427216090       -0.04374933776882
H           -2.81783879528211        2.09635214001307       -0.96194810082908
H           -2.86366811598471        2.09304826810156        0.81094934475436
H           -1.14795920661822       -3.20865450227570        0.79204522081620
H           -1.22914113498156       -3.14770998429010       -0.95993193161366
H           -2.62528472449594       -2.56948905782999       -0.03902402049667
H            1.38325178969031       -2.93657930872730       -0.01405967878536
25
 energy: 0.000000000000 xtb: 6.6.1 (8d0f1dd)
C            3.29482461379469        1.22618126353166        0.11569435111492
N            2.34851694132438        0.15996026877392        0.04511461901906
C            2.66825478085770       -1.21967035017232        0.03982022997947
N            1.45979945276097       -1.92045707538714       -0.00327416656682
C            0.42979221723853       -1.05445566935194       -0.02223669198101
C            0.93883115377950        0.24489602965510        0.01007323331235
C            0.10461321544658        1.36140892543562       -0.01492369898474
O            0.47159968197720        2.57030018084503       -0.00633026101044
N           -1.30352150549215        0.99264651779369       -0.04723842408564
C           -2.19427494811442        2.13979933325745       -0.08365371907064
C           -1.85135524977594       -0.27060062015851       -0.03901340998615
O           -3.05355106860836       -0.64703849605651       -0.02343179715865
N           -0.93639201833262       -1.31372535523026       -0.03837395769503
C           -1.60784002874673       -2.60595764067986       -0.04909272427904
H            3.81449828994767        1.24197351918987        1.08447371536446
H            4.04886059164916        1.11984530821527       -0.67324268000165
H            2.74994173958185        2.15761975654731       -0.01487066129284
H            3.64274443545363       -1.63525099811263        0.06750210476762
H           -1.57107477423205        3.04267389145250       -0.09300590761832
H           -2.80426097441071        2.10417472276739       -0.98427379678829
H           -2.83270463185779        2.13826195464452        0.79956006360266
H           -1.09236980167906       -3.25046957695740        0.69432509992924
H           -1.45087144832846       -3.08633494582487       -0.99168454197318
H           -2.76730476811366       -2.58846742137704        0.06952042908679
H            1.40545840885247       -2.91828473405676       -0.01440349548959
25
 energy: 0.000000000000 xtb: 6.6.1 (8d0f1dd)
C            3.33550075396072        1.26730450592706        0.13996483668460
N            2.37930648381185        0.21402445042791        0.05016973249886
C            2.72318072981288       -1.21235333659090        0.04847828036026
N            1.48414500436899       -1.90457978352796       -0.00386211225442
C            0.45372782958308       -1.05758189454305       -0.02872121866758
C            0.94238271497223        0.26092685464855        0.00696269407148
C            0.10920149692299        1.33033163857070       -0.02079801267639
O            0.44622668734124        2.57307075227722       -0.00903972219548
N           -1.34371365542297        0.94539786485280       -0.06091045830685
C           -2.17371192139676        2.13454311613813       -0.11396900426877
C           -1.87879852810097       -0.31935250995492       -0.03015016137501
O           -3.08342604015871       -0.82964897667772        0.00873579946214
N           -0.94442282011300       -1.32843924644935       -0.03480172826355
C           -1.70261123031789       -2.59262283920774       -0.03536219683236
H            3.89415584113158        1.25674452081062        1.09493656245711
H            4.07636115456461        1.19149542293551       -0.67299774851203
H            2.79391860681928        2.20697780851895        0.05275586291570
H            3.69582882270696       -1.61785277094995        0.08855770600350
H           -1.49450390187018        3.00783257120553       -0.15334687830328
H           -2.78937164336794        2.11530177711354       -1.01030609892520
H           -2.79450268083651        2.19640834294662        0.78400429398313
H           -1.02519624556736       -3.31109399704214        0.57199339971835
H           -1.72002443664539       -3.01379396462490       -1.03521824190311
H           -2.91528140031881       -2.62476059800045        0.20393361871466
H            1.44384268309245       -2.89925092005996       -0.01397529219121
25
 energy: 0.000000000000 xtb: 6.6.1 (8d0f1dd)
C            3.37096012954531        1.29856682143498        0.15738360443492
N            2.40240275087577        0.25267491417987        0.05300648946443
C            2.76097674119057       -1.19963762986435        0.05525020549558
N            1.51096994533848       -1.88419903249494        0.00063587814788
C            0.46700738532474       -1.06466775233925       -0.02431844079442
C            0.94907215769546        0.26899523502412        0.00751164926036
C            0.11775001138691        1.31319484050595       -0.02020347367367
O            0.42985723754056        2.56227776352165       -0.00874083463684
N           -1.38159385669089        0.91555666770603       -0.07369959042091
C           -2.15418029753868        2.13935259017907       -0.13982357848192
C           -1.91350583972672       -0.34905864063959       -0.02652783922187
O           -3.11208444920497       -0.95619548526854        0.01725440435524
N           -0.95956840267229       -1.34579684323564       -0.02571955974325
C           -1.76812537222024       -2.60855740499727       -0.01066113302187
H            3.96450872329266        1.26597785869004        1.09583848905241
H            4.09921987484890        1.25815513556639       -0.67584303428952
H            2.83868105043188        2.25092504282603        0.11345536254957
H            3.73913077888998       -1.59267903015671        0.10443568138115
H           -1.43563700427639        2.98503597938095       -0.20440214500498
H           -2.77635727067312        2.13108969695304       -1.02958925525503
H           -2.75310653401906        2.25329279285859        0.76944496749113
H           -0.97400578073558       -3.36896207898227        0.44375295008116
H           -1.96263991694426       -2.93947928176941       -1.04739361123818
H           -3.04188663162328       -2.71456297330426        0.30969687938370
H            1.49436887493657       -2.88227039703033       -0.01371015312054
25
 energy: 0.000000000000 xtb: 6.6.1 (8d0f1dd)
C            3.39782898549840        1.31111642603311        0.16731099985131
N            2.41631411079579        0.25637412243302        0.05287149473360
C            2.76619988137859       -1.17723780663513        0.05923653391677
N            1.54806934577356       -1.85323077254746        0.00800888566613
C            0.46929825312600       -1.07679049239399       -0.01081109957130
C            0.97090459219077        0.26351282847019        0.00807355856889
C            0.13438637118512        1.32664394754965       -0.01507942072410
O            0.41642345663574        2.52459814435773       -0.00728037275265
N           -1.41721171380006        0.90977850240034       -0.08502040095319
C           -2.14061863732767        2.14997454907946       -0.15653872053778
C           -1.95416034630193       -0.35641635528430       -0.02857085763954
O           -3.11932719126094       -1.02394033629674        0.00769645294515
N           -0.97150239212488       -1.36561533111868       -0.01668387187247
C           -1.77987800536694       -2.66739062774495        0.02860388676984
H            4.01157709153014        1.27021241157949        1.08678092830068
H            4.11565201511909        1.31155411834638       -0.67592729371641
H            2.88018459243554        2.28051555416694        0.15809337659061
H            3.76453364710490       -1.56003507216531        0.11539959849028
H           -1.40854495462190        2.96803978818700       -0.23827112780032
H           -2.76752029008478        2.14422799692620       -1.03823553790854
H           -2.71328215477620        2.29614255847730        0.75489463943235
H           -0.96160917678359       -3.39154543319872        0.29839654865644
H           -2.16767198870297       -2.85397117265101       -1.00192935286025
H           -3.13811719043015       -2.82887063130200        0.37243753663567
H            1.56028600378065       -2.86861812792435       -0.01642247202665
25
 energy: 0.000000000000 xtb: 6.6.1 (8d0f1dd)
C            3.40997940025150        1.31806640739895        0.17308416231641
N            2.42644554116251        0.24573812760242        0.05843195069667
C            2.75868202863723       -1.14012273536383        0.06244274571135
N            1.58964831525110       -1.83235375634517        0.01775901943887
C            0.46941125354765       -1.08478007093819        0.00878765472214
C            0.99588653501813        0.25342734367727        0.01530443584665
C            0.15909918579281        1.34662124022874       -0.01011202432065
O            0.41107917728954        2.50990059147767       -0.00262141478892
N           -1.42570155494795        0.89594603294132       -0.08905435544082
C           -2.12673193139531        2.15046054248169       -0.17463413047330
C           -1.97496790421786       -0.37741707459414       -0.02629898587605
O           -3.10364089893390       -1.07743681600244       -0.00192613788503
N           -0.96850905909279       -1.38128595850557        0.00369143551145
C           -1.80113492798618       -2.70553022607422        0.04050926993411
H            4.03782917807592        1.25812770681928        1.07661674059633
H            4.11175187953088        1.34207030803528       -0.67877202139725
H            2.90503035099203        2.29428149242866        0.19298077005198
H            3.77091660724699       -1.51220699138423        0.12160250101276
H           -1.39112093775701        2.95481387753455       -0.28183492745069
H           -2.76586693549497        2.15409327533301       -1.04858168242227
H           -2.68149536521519        2.34048955645331        0.74125137434495
H           -0.93480937524220       -3.42368748177952        0.10795825807454
H           -2.32145748840968       -2.74716057288764       -0.92389797679713
H           -3.26276399224393       -2.94058632643219        0.45777987515372
H            1.62465522311297       -2.85243970336081       -0.01343262436529
25
 energy: 0.000000000000 xtb: 6.6.1 (8d0f1dd)
C            3.41691622902038        1.32518380829104        0.17517778928184
N            2.43760725741102        0.23704289863059        0.06782484888863
C            2.75485426958047       -1.09365122386103        0.06659306530450
N            1.62681596396479       -1.82171431926951        0.02707695478624
C            0.47615786706061       -1.08513297187527        0.02575541373095
C            1.01620409393044        0.24988327553924        0.02611429178688
C            0.18385431882531        1.35936416746935       -0.00726331198828
O            0.41509512162517        2.52948156995657        0.00393112615531
N           -1.41372185925110        0.87942471982589       -0.09073173356449
C           -2.11310326504425        2.14494671265354       -0.19135267547956
C           -1.97256234686613       -0.40866979629231       -0.02364716631175
O           -3.07391660879660       -1.13711416507091        0.01453937547031
N           -0.94525720062099       -1.39204138699908        0.02638814357405
C           -1.82116033290759       -2.71956482683530        0.02927742554722
H            4.05693673686943        1.24074368661535        1.06597133141040
H            4.10073719780023        1.35884662193665       -0.68633851340865
H            2.91846453355099        2.29919328143623        0.22073780760471
H            3.77253599478622       -1.46027425675105        0.12579221516196
H           -1.38247033102815        2.95107989242135       -0.32479781248853
H           -2.76575561206847        2.15385124737791       -1.05698419724634
H           -2.65239029156242        2.36909678999090        0.72804775433897
H           -0.94486182603053       -3.43845976133459       -0.06512486225083
H           -2.45141962247818       -2.65255824544807       -0.84309579115190
H           -3.40377898397134       -3.06315845166897        0.51818264326150
H            1.67643300117297       -2.83677047799431       -0.00504021021861
25
 energy: 0.000000000000 xtb: 6.6.1 (8d0f1dd)
C            3.41199301556825        1.32342308964555        0.17382792801901
N            2.44236160650372        0.21295743936201        0.08122480011010
C            2.73608924762549       -1.04002258493166        0.07295160172464
N            1.65593590269157       -1.81970073912532        0.03064813233161
C            0.47971506993661       -1.07238780245334        0.02424769551859
C            1.03374540747012        0.25174867071570        0.03412708313337
C            0.20584190796054        1.37971020659488       -0.01064206048938
O            0.44097580858206        2.55449673260246        0.00671857554722
N           -1.37657829775675        0.88047217990074       -0.08927724248267
C           -2.10644756259507        2.13998589142753       -0.20051840886718
C           -1.94910754438339       -0.43131311522101       -0.01557966342433
O           -3.02515108314473       -1.15433467033295        0.07830484749799
N           -0.89773588555941       -1.39114621708596        0.02790805523372
C           -1.79199653551450       -2.72706947503976       -0.01225303449523
H            4.04900542121752        1.22435023960197        1.05704273923260
H            4.08299505312079        1.35046716710495       -0.68766677931553
H            2.91519912362141        2.28623466170869        0.22728254763477
H            3.75495169631682       -1.41833818699649        0.13176645318706
H           -1.39734761505849        2.96351906699614       -0.35000083860180
H           -2.76755200441261        2.14319026604689       -1.06099786572855
H           -2.63681987223790        2.36978216961280        0.71536446130886
H           -0.97567420720773       -3.40413445277967       -0.21383627515051
H           -2.50849433415748       -2.58971562768335       -0.72752847492840
H           -3.56799868009616       -3.21857521806900        0.52846911367790
H            1.70430866648159       -2.82457090285756        0.00545052152068
25
 energy: 0.000000000000 xtb: 6.6.1 (8d0f1dd)
C            3.41393238866298        1.33291672918417        0.17577022257651
N            2.45109852258851        0.21679463289453        0.09698702335854
C            2.74283579634562       -1.00377930553915        0.08529921419249
N            1.67414067827329       -1.82852960157706        0.03736039441493
C            0.48990846951791       -1.04859433273313        0.01982775911556
C            1.03582877676744        0.27001445113228        0.04376811021602
C            0.21211732697392        1.38172852277562       -0.01237896541375
O            0.47648214273354        2.58870558340395        0.00771098683807
N           -1.34310821574019        0.88301804206307       -0.09217882142900
C           -2.09978893978760        2.14272868577587       -0.21599368796903
C           -1.92788291902277       -0.45649207341492       -0.00828807358411
O           -3.00558950756244       -1.19773599830346        0.12291250364721
N           -0.84403605301303       -1.38059268419816        0.03337550290219
C           -1.74088579219270       -2.71355197455313       -0.04362788680746
H            4.05104867192188        1.21570445017192        1.05517997979306
H            4.07500576024915        1.34639518959778       -0.68910568778588
H            2.91483982769727        2.28218009089700        0.23714754555754
H            3.75262516553939       -1.39904888657133        0.14279754951833
H           -1.39952074736835        2.98520727954249       -0.37648069780565
H           -2.76357808778368        2.13692703764018       -1.07398622884930
H           -2.62373797525883        2.37596134987083        0.69936787282568
H           -0.91535493241196       -3.42314192475527       -0.36368226650833
H           -2.64109888971918       -2.50583838790017       -0.64505292488586
H           -3.79040296647227       -3.39607689761636        0.56986980289715
H            1.71733580403441       -2.81587118904330        0.02043468537959
25
 energy: 0.000000000000 xtb: 6.6.1 (8d0f1dd)
C            3.40388283242575        1.33963686584956        0.17166232534221
N            2.44236526490926        0.24149994782291        0.10623520964697
C            2.76593849151787       -1.00872274809496        0.09018468784854
N            1.66263120981433       -1.86894815215433        0.03416985722088
C            0.49206227108635       -1.01211180361514        0.00276952954238
C            1.00161387478996        0.29802982873574        0.04905526983970
C            0.15653976247457        1.35028238932914       -0.01291351784056
O            0.51326442569141        2.61574719301429        0.00221687214215
N           -1.29195259364669        0.90255705379482       -0.08854401758244
C           -2.10418067052545        2.14974169056058       -0.21574788817337
C           -1.90217579770730       -0.47369913123219        0.00451613434341
O           -3.03557364002839       -1.16821409652408        0.15032276761505
N           -0.77481275991422       -1.35894547007596        0.01573756957001
C           -1.57340127404984       -2.66537125418284       -0.10317852339144
H            4.03684585999133        1.21095014415032        1.06054387036813
H            4.07100247339892        1.32556552103955       -0.69291254007297
H            2.89780291866434        2.27715409270672        0.22843309228549
H            3.75188638590786       -1.42526305983478        0.14043102060287
H           -1.39830795311735        3.01620437181569       -0.36800662364724
H           -2.76155564163590        2.12648059955260       -1.07603101992246
H           -2.63632739575708        2.36246214711295        0.70562409068420
H           -0.85918013147603       -3.43336454053472       -0.35646761644820
H           -2.61396127845071       -2.53594602835505       -0.54948448816645
H           -4.02403670372684       -3.44742175644534        0.50543258144976
H            1.69184437433609       -2.82927501569128        0.02298526893792
25
 energy: 0.000000000000 xtb: 6.6.1 (8d0f1dd)
C            3.40863270636124        1.33125540391073        0.16805695971713
N            2.44008617152458        0.26130377618302        0.10388176197950
C            2.78712282490201       -1.03323717229088        0.09103271317816
N            1.65230284233205       -1.87102317507435        0.03102500838070
C            0.49613056993386       -0.98990806848257       -0.00830449187296
C            0.98986394802822        0.31674172772697        0.04679692373073
C            0.10105611421754        1.33593509048039       -0.01030648674495
O            0.53432341644129        2.60926847850642       -0.00134708038026
N           -1.26587877703964        0.93549343937094       -0.08673949118403
C           -2.09912564982249        2.16535326601092       -0.20843222710947
C           -1.90206040069050       -0.47653590488429        0.01291038143091
O           -3.07817195030479       -1.20358584925297        0.14537444530629
N           -0.75952832317684       -1.35382348398823       -0.01509806415875
C           -1.42620199548900       -2.61010885511430       -0.13769688374283
H            4.03196451916174        1.21770245910694        1.06518691002989
H            4.08446859017030        1.30937019554137       -0.69588358804225
H            2.89111153802238        2.27261369094254        0.21160838340205
H            3.76177340245349       -1.44842550087900        0.13884456789534
H           -1.40706289573429        3.04198154630334       -0.34096282436752
H           -2.74738188984783        2.11825841520691       -1.06881094453487
H           -2.63854393264622        2.33998038354814        0.71282774117736
H           -0.78988839024023       -3.42926575582280       -0.34187460309848
H           -2.53385550556796       -2.54918706447854       -0.41759968184709
H           -4.30149699205582       -3.45766060136890        0.41233816306851
H            1.68257436403917       -2.84346765245754        0.02020631998144
25
 energy: 0.000000000000 xtb: 6.6.1 (8d0f1dd)
C            3.41684927181482        1.31330490261764        0.16838973076968
N            2.44189826139580        0.27718039110047        0.09382963928225
C            2.79637491783303       -1.08820710130744        0.08833518289618
N            1.63866514423947       -1.82933879557237        0.02809598156420
C            0.51795273683308       -0.98838648535713       -0.01039969303692
C            1.01460206703352        0.32580752803151        0.03859243041437
C            0.08221851068762        1.36109622443937       -0.00655498905756
O            0.54501515450624        2.58204224031996       -0.00048770863970
N           -1.25920794037255        0.98363064275860       -0.08633122723599
C           -2.08242102479999        2.18368114851285       -0.19592805028947
C           -1.91621092118893       -0.45084074597739        0.01626025208796
O           -3.13307084994342       -1.31004880692831        0.14410523548170
N           -0.80444290899260       -1.37056568538353       -0.05983195261986
C           -1.30193694130696       -2.57001795487324       -0.15770955497242
H            4.02567996190124        1.23094169086562        1.07388684490354
H            4.09812438551909        1.29663186523823       -0.69593021629069
H            2.88320663724242        2.27266824991686        0.18556676935611
H            3.77739371535584       -1.46860178050754        0.13499400737859
H           -1.42264611201212        3.05599601729575       -0.31316474642618
H           -2.73071112471677        2.11207483286278       -1.05441065465775
H           -2.64016600396075        2.32007403244389        0.72244449191221
H           -0.73048657005912       -3.41359655094398       -0.29239958178127
H           -2.41503439487866       -2.58517218618153       -0.30885444194723
H           -4.56200635326567       -3.40381884575322        0.30165149044411
H            1.67257468610767       -2.84750603887365        0.01288467265867
25
 energy: 0.000000000000 xtb: 6.6.1 (8d0f1dd)
C            3.42103975263161        1.30355955616665        0.16656302108858
N            2.44535014992828        0.26857261971446        0.08971516414824
C            2.78270196797305       -1.11166727471733        0.08574251743535
N            1.63539470854168       -1.79996939731551        0.02368366516699
C            0.54627585996957       -0.97620129075236       -0.01302957413158
C            1.05066209276363        0.33054532312944        0.03007132496177
C            0.09866047118715        1.39995915307277       -0.00473153524254
O            0.56161659888438        2.56847806667174        0.00100539341631
N           -1.24330672939368        1.01648055418616       -0.08705498305193
C           -2.06825383292932        2.20044410233975       -0.18183570688451
C           -1.92270554271040       -0.43947424950090        0.00040574287633
O           -3.17850094000738       -1.48057135082324        0.13840963836620
N           -0.80081608669530       -1.35023765273082       -0.08055259399221
C           -1.21314894237791       -2.54926940894921       -0.16862650396604
H            4.01280948729462        1.24190724552780        1.07979037665539
H            4.10952454484190        1.28056671115989       -0.68703694870524
H            2.88397799006192        2.26637597884779        0.15569292354393
H            3.77921295194523       -1.47673391806004        0.13297546001998
H           -1.43914840596097        3.08402598316370       -0.28473741676862
H           -2.71618981095871        2.11725153531157       -1.04406791858035
H           -2.64673187464203        2.30151874530215        0.72785188917221
H           -0.64561143726583       -3.40915665720764       -0.28587644935347
H           -2.35151444994777       -2.58997380221191       -0.17338385432597
H           -4.84154698153825       -3.37226628967208        0.19777784455625
H            1.65246276337680       -2.83513549390865        0.00828243578947
25
 energy: 0.000000000000 xtb: 6.6.1 (8d0f1dd)
C            3.42908695186635        1.29726403650814        0.16531979982198
N            2.45317893009853        0.25267266061806        0.08322246653558
C            2.76741542944023       -1.13928012787936        0.08030287633705
N            1.62902755190431       -1.76795461130814        0.01618695849813
C            0.58063620203639       -0.97204813037752       -0.01599928326352
C            1.09702738504975        0.32331166312508        0.01956932630968
C            0.14923451853073        1.45373953785404       -0.00333704497273
O            0.56682408471395        2.55481519410248        0.00480789890405
N           -1.23952369026816        1.04244326504654       -0.08566234205256
C           -2.05108987048857        2.21754068437200       -0.16565613174498
C           -1.93938015206805       -0.40906219865755       -0.03073326800732
O           -3.27919103849635       -1.75081648723517        0.11896163387160
N           -0.82520791215285       -1.30677600514921       -0.09380451709293
C           -1.17913877159300       -2.55231592830009       -0.16597678651294
H            4.01142545179379        1.25048020711711        1.08726088207047
H            4.12337096243698        1.27070636120020       -0.68211505459241
H            2.88779150001536        2.26288603243855        0.13619119001031
H            3.78685027890342       -1.48332044171499        0.12758673419810
H           -1.44608222284926        3.11024877860686       -0.25785041107814
H           -2.70099653004194        2.12736892021088       -1.03365112332831
H           -2.65099157778841        2.28924134781214        0.73948656424673
H           -0.57036023299160       -3.39004070572975       -0.20025409703945
H           -2.26849048106250       -2.59690569888267       -0.11377373033259
H           -5.04579636167914       -3.27157500433359        0.09738485620558
H            1.62659389966230       -2.82359456069988       -0.00043348479686
25
 energy: 0.000000000000 xtb: 6.6.1 (8d0f1dd)
C            3.43181722507218        1.29665629994491        0.16237480569826
N            2.46385324719595        0.20967845225694        0.08210656498357
C            2.73679985357936       -1.13862264155262        0.07836059536210
N            1.63352833253417       -1.74552625686628        0.00976909283960
C            0.61951838028145       -0.96822072176930       -0.02311158081509
C            1.15325104450544        0.30337432583587        0.01176490415311
C            0.23903843193896        1.52703955422669       -0.00434804721528
O            0.57278502379659        2.55949125535100        0.00843843001915
N           -1.22152714661543        1.06606522974119       -0.07959912176461
C           -2.03457275115016        2.23138232280796       -0.15083865586175
C           -1.93459189481894       -0.35255543250020       -0.07313879263163
O           -3.40651224363445       -2.08076096944235        0.11448780348087
N           -0.84130998474106       -1.22891517926304       -0.10080343794976
C           -1.16894852781438       -2.56765837012786       -0.16782630954422
H            4.00297598747907        1.25666402747068        1.09434533985557
H            4.13196385243587        1.25651979670312       -0.67346312537850
H            2.88977830648307        2.25307891540952        0.11600223987949
H            3.78621520772959       -1.48334456022693        0.12528681695114
H           -1.45513022092174        3.14194833955010       -0.23564260700381
H           -2.68834768140259        2.13503258473798       -1.02796304833268
H           -2.65714126796578        2.27627518370998        0.74831102851803
H           -0.48878445509106       -3.37229077702819       -0.13161043918857
H           -2.22480252635565       -2.59204914679802       -0.06321168939584
H           -5.23011569592958       -3.18396805772122        0.01267923853878
H            1.60247380838146       -2.81026538570583       -0.00533609300343
25
 energy: 0.000000000000 xtb: 6.6.1 (8d0f1dd)
C            3.43217216027254        1.31920226357803        0.15418895194151
N            2.48381097578631        0.12918534677595        0.08493905828013
C            2.70561753770361       -1.05937160534871        0.07674095460663
N            1.65732366354617       -1.77843201385195        0.00596648153947
C            0.63397746605284       -0.96872865562548       -0.03230788031036
C            1.17595462277234        0.26495072085114        0.01143631450212
C            0.33201981387611        1.55008912168786       -0.01069125011784
O            0.55925006703063        2.61839003645687        0.01673172114114
N           -1.19901174331898        1.04244549338632       -0.07387807890476
C           -2.03619000936321        2.22739222795552       -0.14315289337512
C           -1.87603674163960       -0.27455318237642       -0.09590438333071
O           -3.54321429566255       -2.32112455550212        0.08087298293453
N           -0.81908180180800       -1.11694226291568       -0.08180582517080
C           -1.24689994151527       -2.60304631498542       -0.16397479433071
H            4.00363709424508        1.25931702688364        1.09733828556321
H            4.13957413921377        1.25305607491955       -0.66766315870745
H            2.90021514084874        2.24125784000217        0.10854589101109
H            3.78269850901046       -1.48397507389689        0.12198864091252
H           -1.44698296975635        3.16202652069002       -0.22543266996146
H           -2.68893649795002        2.14412195226164       -1.03095649300601
H           -2.66353504190647        2.27295412029756        0.75806162250240
H           -0.45321949643143       -3.37923873917693       -0.07877258634095
H           -2.23088845309522       -2.56693607286511       -0.05380825586386
H           -5.27956166734687       -3.14989313345308       -0.02148534056725
H            1.58952177440772       -2.79311834700433       -0.00994338275293
25
 energy: 0.000000000000 xtb: 6.6.1 (8d0f1dd)
C            3.45242867059647        1.32443565904905        0.15566874624810
N            2.50133503166803        0.15361518416732        0.07626188061856
C            2.73193027745220       -1.07925072229154        0.07328374531243
N            1.65175756983306       -1.78873033769779        0.00376432701436
C            0.63739567224243       -0.96037123186031       -0.03438954948814
C            1.16851849037918        0.29152864781732        0.00390116573681
C            0.33448833358613        1.52117433260674       -0.01311114889974
O            0.55768376705840        2.63694584787592        0.02893191781953
N           -1.21677721474241        1.03895970433776       -0.08638167591665
C           -2.03019419001347        2.24123371683197       -0.13587871875499
C           -1.85005989703201       -0.24833917873474       -0.09857195297292
O           -3.66257846389720       -2.53437330853871        0.05198950867051
N           -0.80478716786883       -1.09909391994028       -0.10143174912591
C           -1.21025083112635       -2.58353982760511       -0.17651406689175
H            4.01306942903036        1.26347506583450        1.10595583580277
H            4.15845991733282        1.25177727338214       -0.67047370020925
H            2.90613479759943        2.24517927528302        0.10466598463311
H            3.80143913834955       -1.51262074806560        0.11676306129270
H           -1.44772385242102        3.17562212984661       -0.20603533646829
H           -2.67347809803338        2.15651586400590       -1.01848233749760
H           -2.65375175909356        2.27080514169832        0.76706069724638
H           -0.45867419271941       -3.34568074042250        0.00850067398119
H           -2.22716290645073       -2.59002753371292       -0.03224373667664
H           -5.34606545234978       -3.05527120043101       -0.07620927625879
H            1.57907723559244       -2.78494030469192       -0.01999038302119
25
 energy: 0.000000000000 xtb: 6.6.1 (8d0f1dd)
C            3.45397906249225        1.31178642090973        0.16003141840009
N            2.51629243418549        0.20423381576771        0.08086098095021
C            2.78024823460783       -1.08592479321261        0.07977927264658
N            1.64254982022600       -1.84274547850716        0.00777855983380
C            0.57234004393787       -0.94945371555324       -0.03341539814575
C            1.10334448961033        0.36181640001433        0.00884775229374
C            0.35989277765845        1.44515906603707       -0.01587515616180
O            0.60586287190779        2.68505277173365        0.03066856645981
N           -1.20637901801613        1.04452855254304       -0.09483889683245
C           -2.03519456836891        2.24433527166603       -0.14375164683996
C           -1.72084560146006       -0.14647751174261       -0.09715910865749
O           -3.84720249600480       -2.69534051656518        0.06649662683594
N           -0.75938908970997       -1.12524886784456       -0.09298318506932
C           -1.21364024054607       -2.53566750108278       -0.18876291008073
H            4.00103394513471        1.25280574248049        1.10056332035273
H            4.14916611418066        1.24195951259637       -0.67113301547821
H            2.89323553066743        2.23458724246595        0.10933157662851
H            3.78161046428509       -1.51763462499334        0.11795331253575
H           -1.45145797781327        3.16942276885921       -0.21327800206114
H           -2.66866573451720        2.15427316804686       -1.01307343275425
H           -2.64230008725892        2.27285601433107        0.75500676540729
H           -0.52146778865920       -3.31805162158467       -0.01053214974599
H           -2.30735993359815       -2.55643684593487       -0.07682746746651
H           -5.15657766786889       -3.06559232924574       -0.02338430555801
H            1.58313871990007       -2.79521415244063       -0.01526956529827
25
 energy: 0.000000000000 xtb: 6.6.1 (8d0f1dd)
C            3.45541804920064        1.28883469606293        0.16332215938980
N            2.52499104829674        0.23123570632994        0.07985798807736
C            2.80566603446154       -1.13362583189886        0.07669638849915
N            1.63978368424013       -1.81591599665476        0.00744257130785
C            0.57627751077306       -0.95998503972326       -0.02820700224853
C            1.11226355028733        0.37401462891468        0.01128821920883
C            0.37744571870326        1.48149717804281       -0.01101009436483
O            0.64083239659168        2.69449129455566        0.02715804828383
N           -1.20021511597585        1.08767771130206       -0.09973839143017
C           -2.02367576206602        2.25272017873267       -0.14292531349725
C           -1.67731443519769       -0.07460407579879       -0.11424408029945
O           -4.04368745324651       -2.97487886232914        0.06724480442957
N           -0.76721852902494       -1.16172090090711       -0.09625740645161
C           -1.24907998929104       -2.45530389870710       -0.17206414840749
H            4.00482486454354        1.24999145077139        1.09916709612536
H            4.15204163530346        1.24165217596282       -0.67363601730375
H            2.88988644677434        2.23499597265111        0.11003696033976
H            3.77864036979204       -1.51999775355367        0.11443789124233
H           -1.44726331777468        3.16637872634866       -0.20927213408092
H           -2.66623680950023        2.15546356844772       -1.00945094602307
H           -2.63492772310255        2.26925795544649        0.75703931671041
H           -0.58720623352881       -3.28633065539753        0.00980056182837
H           -2.30640282848880       -2.53416603926726       -0.10379647570928
H           -5.02884093851034       -3.00119241509675       -0.01788110010600
H            1.58621213171198       -2.82146098549053       -0.01797498332575
