25
 energy: 0.000000000000 xtb: 6.6.1 (8d0f1dd)
C            3.25136645333984        1.18213574559010        0.09114108242417
N            2.31580323729355        0.10401761164528        0.04097086794952
C            2.62229644123974       -1.22053310566663        0.03348155853992
N            1.46390710896808       -1.91768988079811       -0.00343898619325
C            0.41380029247350       -1.05523539592225       -0.01615984588049
C            0.93868387528482        0.24398293344665        0.01027377072925
C            0.10436165074550        1.36297264341436       -0.01459061691006
O            0.48592345623010        2.56607958262155       -0.00512745129798
N           -1.27210252426412        1.03321494910039       -0.03664257649534
C           -2.20737707379962        2.14634635319969       -0.06483862568573
C           -1.83956129482568       -0.24459117061124       -0.04254597057008
O           -3.03715799987682       -0.53437594250041       -0.04427090364215
N           -0.95051273049227       -1.33568019923805       -0.03143938272332
C           -1.54274609793440       -2.62280838196647       -0.05471973865699
H            3.73780776422993        1.22321489214358        1.07090505982844
H            4.02147577002354        1.05959428527069       -0.67412919772451
H            2.71446822910795        2.11741376309938       -0.06824153371210
H            3.59505194535666       -1.64200564331346        0.04984130165576
H           -1.63790814491876        3.07551732098279       -0.04580506191456
H           -2.81487027292580        2.09773218621680       -0.96652941693035
H           -2.85751971650163        2.10149356540022        0.80890341640030
H           -1.11813543618020       -3.22989185839615        0.73977014450250
H           -1.28182146333432       -3.13237384373704       -0.96479162233941
H           -2.72386292274433       -2.58203213625462        0.03344354571040
H            1.40163509615638       -2.92067987740003       -0.01439059528819
