25
 energy: 0.000000000000 xtb: 6.6.1 (8d0f1dd)
C            3.23720132972391        1.16630909158653        0.08434468864950
N            2.29877796055224        0.07527476373246        0.03981602671198
C            2.58028186251803       -1.21425391179017        0.03006175752192
N            1.43813944744728       -1.93419254010258        0.00098261751768
C            0.39035684826767       -1.05887462812143       -0.00790371763344
C            0.93510047688824        0.21347817468824        0.01709077332874
C            0.09450143016486        1.40504290868848       -0.00410946993748
O            0.49712746915594        2.54126690785742       -0.00342325656480
N           -1.25076628431515        1.06271869620815       -0.03085477937476
C           -2.21907191394203        2.15522079838987       -0.05001256521996
C           -1.81739470187490       -0.20012724136556       -0.04692818139228
O           -2.99983858926755       -0.37846413507442       -0.07008877579474
N           -0.92618577614240       -1.30210203518959       -0.03682761236648
C           -1.46982251276835       -2.64643077634382       -0.06029819901142
H            3.71247229913541        1.21471443890471        1.06488839270555
H            4.00791460421487        1.03430799217987       -0.67357688121503
H            2.69909982127087        2.09770098766290       -0.09130154035862
H            3.56654087521359       -1.63682977417947        0.04233139674524
H           -1.67107945562430        3.09322822573871       -0.02552706696334
H           -2.82428927394145        2.09428605349656       -0.95318074103337
H           -2.87644002486466        2.07745706351925        0.81450059976605
H           -1.17061985538665       -3.19584861009707        0.83242224714061
H           -1.14560246782873       -3.17511580834413       -0.95688266944647
H           -2.55549768731684       -2.55659960601237       -0.07459039105944
H            1.38130842369251       -2.94313824728853       -0.01389874052104
25
 energy: 0.000000000000 xtb: 6.6.1 (8d0f1dd)
C            3.25136645333984        1.18213574559010        0.09114108242417
N            2.31580323729355        0.10401761164528        0.04097086794952
C            2.62229644123974       -1.22053310566663        0.03348155853992
N            1.46390710896808       -1.91768988079811       -0.00343898619325
C            0.41380029247350       -1.05523539592225       -0.01615984588049
C            0.93868387528482        0.24398293344665        0.01027377072925
C            0.10436165074550        1.36297264341436       -0.01459061691006
O            0.48592345623010        2.56607958262155       -0.00512745129798
N           -1.27210252426412        1.03321494910039       -0.03664257649534
C           -2.20737707379962        2.14634635319969       -0.06483862568573
C           -1.83956129482568       -0.24459117061124       -0.04254597057008
O           -3.03715799987682       -0.53437594250041       -0.04427090364215
N           -0.95051273049227       -1.33568019923805       -0.03143938272332
C           -1.54274609793440       -2.62280838196647       -0.05471973865699
H            3.73780776422993        1.22321489214358        1.07090505982844
H            4.02147577002354        1.05959428527069       -0.67412919772451
H            2.71446822910795        2.11741376309938       -0.06824153371210
H            3.59505194535666       -1.64200564331346        0.04984130165576
H           -1.63790814491876        3.07551732098279       -0.04580506191456
H           -2.81487027292580        2.09773218621680       -0.96652941693035
H           -2.85751971650163        2.10149356540022        0.80890341640030
H           -1.11813543618020       -3.22989185839615        0.73977014450250
H           -1.28182146333432       -3.13237384373704       -0.96479162233941
H           -2.72386292274433       -2.58203213625462        0.03344354571040
H            1.40163509615638       -2.92067987740003       -0.01439059528819
25
 energy: 0.000000000000 xtb: 6.6.1 (8d0f1dd)
C            3.26579473106374        1.19721717016898        0.09884437651746
N            2.33270779703470        0.13278789530034        0.04287678717626
C            2.66481194251232       -1.21976727880862        0.03932248471443
N            1.48996772135171       -1.90039490590145       -0.00350960568317
C            0.43753409942296       -1.05487295694145       -0.02492424453485
C            0.95181801483980        0.26879500293752        0.00760707838249
C            0.11335144794945        1.31799582277127       -0.02058180900518
O            0.45420662088263        2.57269842190092       -0.00853925915334
N           -1.29406918334493        1.00450226336991       -0.04400684182005
C           -2.19583955705083        2.14037546124237       -0.08138910727375
C           -1.86073206833288       -0.28956403625764       -0.03566168444935
O           -3.06075554860568       -0.69305353437618       -0.01456825495005
N           -0.97143227439874       -1.36805874981040       -0.01463198933296
C           -1.61690397232667       -2.60423913659057       -0.04811998052348
H            3.76372957468286        1.23024437743357        1.07597065879791
H            4.03381127652392        1.08550475993019       -0.67380283066745
H            2.73035722994419        2.13574723779881       -0.04441600545171
H            3.62318437866331       -1.63896926565618        0.05990915446039
H           -1.60531216885892        3.05917791601208       -0.06810198807766
H           -2.80661132974215        2.10263822748336       -0.98027051478956
H           -2.84038550194898        2.12672001799820        0.80254320989665
H           -1.06677955097300       -3.27217625553154        0.64969275643443
H           -1.41864493344357       -3.09507446269109       -0.98652484400492
H           -2.87459666940192       -2.61155007170715        0.16712806833924
H            1.42898397100976       -2.90565794020724       -0.01415327876806
25
 energy: 0.000000000000 xtb: 6.6.1 (8d0f1dd)
C            3.28040770526516        1.21181656031740        0.10723832877147
N            2.34946924517440        0.16161320240012        0.04525356631994
C            2.70700070039091       -1.21533892458339        0.04579872099702
N            1.51446388525512       -1.88133267279362        0.00127753856882
C            0.46203771111837       -1.06062574507517       -0.02720669406537
C            0.98206243584560        0.25890418292671        0.01020854467973
C            0.14527204385596        1.33594202674743       -0.01259652610794
O            0.42860315501430        2.56029270234099       -0.00868174549558
N           -1.31660295243969        0.97621365101610       -0.05166898052623
C           -2.18430411097011        2.13634887616127       -0.09847345647540
C           -1.88826798286074       -0.33044485446903       -0.02859142054836
O           -3.08805788531107       -0.85139256543539        0.01085860561725
N           -0.95666846835273       -1.38965800061876        0.02056020539455
C           -1.69251692624996       -2.59288090499408       -0.03740225743569
H            3.78998959910544        1.23659479187445        1.08058941927484
H            4.04544857510528        1.11175722995882       -0.67331860459358
H            2.74637696512256        2.15361175640433       -0.02028228355770
H            3.65070998153546       -1.63350665828714        0.07059155075486
H           -1.57308842668382        3.04362684924898       -0.09150909789263
H           -2.79867039870684        2.10791220571483       -0.99411655856339
H           -2.82359172139976        2.15209405816110        0.79590941581103
H           -1.01905719613222       -3.31739896949991        0.55914001027858
H           -1.55531479604917       -3.05847231782225       -1.01030521100094
H           -3.01426296098413       -2.69006426759512        0.28855056331513
H            1.45784635521921       -2.89383700180421       -0.01387239716692
25
 energy: 0.000000000000 xtb: 6.6.1 (8d0f1dd)
C            3.29499648057880        1.22635469188633        0.11579472903550
N            2.36590249982607        0.19059326774678        0.04800369377201
C            2.75106925431753       -1.20552544220107        0.05281623341325
N            1.53786237996012       -1.86070813391977        0.00586162142328
C            0.46928860476926       -1.07647082959796       -0.01134225380387
C            1.00967233737300        0.25039138909929        0.02253820066533
C            0.18296262190333        1.35877483213353       -0.00727111388817
O            0.41850564955838        2.53099327512847       -0.00766749488976
N           -1.34011775732191        0.94895288563140       -0.05968982199283
C           -2.17251734209802        2.13457112561582       -0.11563072859437
C           -1.93168926173649       -0.35243133713625       -0.02738624989104
O           -3.11889687083174       -1.01070274398058        0.01000964703254
N           -0.91655761738818       -1.39167466060175        0.02733940392007
C           -1.76605392619501       -2.60662181302354       -0.01301525373143
H            3.81641972476811        1.24237613458782        1.08476547939259
H            4.05634772274348        1.13828590372208       -0.67314559140186
H            2.76211953806805        2.17151777976800        0.00398714123248
H            3.67762302497883       -1.62512300428260        0.08139476682762
H           -1.54124550511740        3.02864447371934       -0.11575252903621
H           -2.79094969914827        2.11388278794585       -1.00772173804664
H           -2.80709523030184        2.17759538017993        0.78901976980968
H           -0.97817052191221       -3.36305186292998        0.46392198359949
H           -1.69194468778820       -3.02174024696545       -1.03256866326629
H           -3.13653435752542       -2.82722673487247        0.37138426444866
H            1.48754116388348       -2.88410997672191       -0.01371755794388
25
 energy: 0.000000000000 xtb: 6.6.1 (8d0f1dd)
C            3.30933356857314        1.24106926922116        0.12446847361853
N            2.38238856017642        0.21983413014214        0.05065383905751
C            2.76589307694511       -1.17224729158017        0.05977959981619
N            1.56354018717873       -1.84417081148376        0.01149119279894
C            0.46987536117140       -1.08489326829178        0.01235555847056
C            1.03451842351245        0.25398204114694        0.03643491321381
C            0.21104271658558        1.38100867858514       -0.01247986191412
O            0.41175702127028        2.51440804093345        0.00006220337256
N           -1.36682326931635        0.92361208479904       -0.06877308760268
C           -2.15995553559571        2.13726879165993       -0.13240044239837
C           -1.97467865862297       -0.37519997594844       -0.02652529966608
O           -3.05981275923905       -1.14314623276637        0.02849202334253
N           -0.87317864586642       -1.38778334992368        0.03061687351681
C           -1.77976017997927       -2.66698291400739        0.02842856456793
H            3.84297177291548        1.24774853175218        1.08914929329539
H            4.06665248817115        1.16508956147397       -0.67303875148295
H            2.77773035796173        2.18932087751382        0.02842657724928
H            3.70368980502501       -1.61436510989716        0.09148216830494
H           -1.50972093579901        3.01435373213215       -0.14087562565715
H           -2.78324244789591        2.12205648780509       -1.02006484928980
H           -2.79009277181949        2.20279765864643        0.78236312574588
H           -0.96621426001661       -3.38345735508513        0.35643990216595
H           -1.82943694867285       -2.98219319214805       -1.04289618257469
H           -3.27107847644938       -2.94789617539672        0.46225481057399
H            1.51779434253661       -2.87704674514849       -0.01450155522648
25
 energy: 0.000000000000 xtb: 6.6.1 (8d0f1dd)
C            3.32366479358958        1.25574323041689        0.13321536140693
N            2.39900700550130        0.25001420745536        0.05293596908749
C            2.75773836493718       -1.13021577253893        0.06329744706155
N            1.59155871623373       -1.83164957779485        0.01823178329435
C            0.47882443194628       -1.07581948411400        0.02469965547568
C            1.02859858973493        0.28005120900624        0.04646802422545
C            0.16976940513560        1.35624408059022       -0.01289116911756
O            0.42553505405908        2.54193833110245        0.00568013267823
N           -1.39993604527048        0.91276851232127       -0.07930537950065
C           -2.14785893194973        2.14472544117530       -0.14763993552742
C           -1.96385647588183       -0.41976839924721       -0.02030949379957
O           -3.02761532354999       -1.17166922523992        0.14820551470621
N           -0.83123609196029       -1.37719378125357        0.03266364211956
C           -1.82082717023089       -2.72050499341272        0.02676898499864
H            3.86967847813227        1.25270415677631        1.09309388734212
H            4.07655467199208        1.19202973896065       -0.67299828747750
H            2.79384708761566        2.20690264099819        0.05265245098483
H            3.72912993467272       -1.60023292328899        0.10061833909438
H           -1.47813309638350        3.00152160037527       -0.16669560761467
H           -2.77537031319215        2.13236309570048       -1.03063396310673
H           -2.77254370454310        2.22784960274179        0.77619768892294
H           -0.95367113942695       -3.40081007892548        0.24582219475424
H           -1.96543855448556       -2.93848574015156       -1.04738016998232
H           -3.41679198501808       -3.07510518547680        0.51948791404265
H            1.54842885934975       -2.87114692547036       -0.01619034342438
25
 energy: 0.000000000000 xtb: 6.6.1 (8d0f1dd)
C            3.33846216920431        1.27013887727508        0.14155966908631
N            2.42516144553752        0.24711623031237        0.05751679622240
C            2.75364620715747       -1.08788608845416        0.06717061742024
N            1.62074971335368       -1.82264404622226        0.02591262470408
C            0.48911133253349       -1.05237902496808        0.02076705381518
C            1.00010590501995        0.29981811933886        0.04902007791375
C            0.12423773352709        1.33983342121456       -0.01191138447273
O            0.44940820557434        2.56283086258537        0.00708101744011
N           -1.42565897314511        0.89515030127492       -0.08916866567197
C           -2.13573541081156        2.15025325426772       -0.16287263537610
C           -1.92897248735256       -0.45550005167834       -0.00871816347772
O           -3.12478314130636       -1.28830425120699        0.14440199850116
N           -0.78860912026928       -1.36358682493925        0.02242978166266
C           -1.76885906865221       -2.72243736679481       -0.02915396829479
H            3.89653395534931        1.25710883578395        1.09499177739028
H            4.08612215498973        1.21906372004733       -0.67404047005064
H            2.81060253709772        2.22443122427143        0.07658092691306
H            3.75105509124573       -1.58150324640612        0.10914960344606
H           -1.44672601998930        2.98997547118770       -0.19350505837645
H           -2.76740345104895        2.14469416250603       -1.03860585299886
H           -2.75411660724979        2.25205813704726        0.76980569476005
H           -0.93605185971211       -3.41995281410421        0.13673618742878
H           -2.09799299664940       -2.88729694778533       -1.02388082711064
H           -3.56361468754741       -3.21474722258987        0.52807608662324
H            1.57882217157869       -2.86427485245447       -0.01609748955577
25
 energy: 0.000000000000 xtb: 6.6.1 (8d0f1dd)
C            3.35364225839230        1.28484416414101        0.14940129314807
N            2.44010837356903        0.22226296042748        0.07436374928951
C            2.73703148189492       -1.04778666509699        0.07168739111721
N            1.65178050037700       -1.81976186455090        0.02996190387801
C            0.49108268702808       -1.02957730390542        0.01188994368083
C            0.99663138328018        0.32151073645440        0.04381981702426
C            0.08655360171612        1.34844704600823       -0.00795138341709
O            0.47137536473680        2.58426067870348        0.00768520919407
N           -1.39768238169312        0.87971838892463       -0.09007809312149
C           -2.12283785269015        2.14977963495036       -0.17942919802737
C           -1.90319696727588       -0.47445732106937        0.01403666705392
O           -3.16854232992318       -1.44500398276094        0.13996343739652
N           -0.76154734019888       -1.35451003446780       -0.00524041674621
C           -1.70104728112728       -2.70266017052674       -0.06057973386798
H            3.92365571219470        1.26101569690742        1.09551185380146
H            4.09531303756122        1.24623053089210       -0.67557987045647
H            2.82811096564422        2.24160365692944        0.10021241357202
H            3.76532186924143       -1.55671415155720        0.11602786482866
H           -1.41914617271045        2.97534408546748       -0.22275221377951
H           -2.76580543227809        2.15406171781830       -1.05168480555698
H           -2.73359351870599        2.27427703914027        0.76249375236038
H           -0.93761220199855       -3.43306768693395        0.02558927363069
H           -2.21746606926291       -2.82354414257213       -0.98182207685959
H           -3.71628619815660       -3.35360349258904        0.56141573015909
H            1.60905013268243       -2.85664147224590       -0.01452583488866
25
 energy: 0.000000000000 xtb: 6.6.1 (8d0f1dd)
C            3.36986786153673        1.29786625771655        0.15691409884269
N            2.45104141439513        0.21736315724251        0.09768548715230
C            2.74158891154131       -1.00464068823119        0.08408798725569
N            1.67385892307920       -1.83270576603530        0.03728384338831
C            0.49259852768357       -1.00620318823610       -0.00003390332735
C            1.02931148474356        0.32853794752553        0.03489393199785
C            0.09332680501775        1.39106449771927       -0.00503559339425
O            0.49491588615634        2.60648317307737        0.00562758112443
N           -1.35951611708528        0.88140607255128       -0.09075160445518
C           -2.11026119799163        2.14263950114851       -0.19495998464541
C           -1.92490613199265       -0.43597334320394       -0.00370223379209
O           -3.22008223586359       -1.59892587824669        0.12946449758687
N           -0.78169685026491       -1.36208694536508       -0.03790262802223
C           -1.63077103595956       -2.68297203422367       -0.08580684013981
H            3.95086929178875        1.26445310010153        1.09579941942232
H            4.10505953505595        1.27348810451609       -0.67587396117346
H            2.84721845698024        2.25777248521354        0.12310569055479
H            3.76981189407998       -1.52724688518344        0.12005062842923
H           -1.39939759677635        2.96090673753496       -0.25748079552556
H           -2.76754993493308        2.14332830364449       -1.06088688662977
H           -2.71307593531985        2.29639629758339        0.75481267065474
H           -0.94770177715426       -3.43683483643639       -0.08502247005665
H           -2.32376870946709       -2.74552078468117       -0.92261154209350
H           -3.89227662508452       -3.42671144216999        0.55038049512758
H            1.63899411465253       -2.84846551462053       -0.01196789923981
25
 energy: 0.000000000000 xtb: 6.6.1 (8d0f1dd)
C            3.38882805601865        1.30701521607715        0.16390497872376
N            2.44121817545533        0.24847119837308        0.10587294992895
C            2.77724310658901       -1.01728930949079        0.09074261675706
N            1.66481679633391       -1.86629883489760        0.03478541496321
C            0.49967520417646       -0.98937622939574       -0.00905491049840
C            1.05989386855074        0.33011748772885        0.02787259437335
C            0.11999850755580        1.42627280541679       -0.00384808845841
O            0.52185872601163        2.61453276004932        0.00061600316488
N           -1.32314493626747        0.88772102123155       -0.09130762472751
C           -2.10025836259482        2.14183024106512       -0.21476760780748
C           -1.93928692991859       -0.40234935248879       -0.03667860287939
O           -3.27908763829475       -1.75054379138456        0.11896788602755
N           -0.80347043781695       -1.36681482346634       -0.06755765814330
C           -1.56026001771093       -2.66094994541308       -0.10683324190415
H            3.97800894572456        1.26753304793190        1.09474328058535
H            4.11452306122877        1.30089384398786       -0.67590273990112
H            2.86856553161234        2.27303667615395        0.14502829670538
H            3.77163075789050       -1.49702309148041        0.12290019672404
H           -1.38677281202929        2.95280932542541       -0.29796568402634
H           -2.76327380378183        2.13580152569234       -1.07445234944358
H           -2.69562626934924        2.32121898630870        0.74748707594626
H           -0.97407056644366       -3.40621726809531       -0.19189136863345
H           -2.43190499071078       -2.66914619153776       -0.86118446606073
H           -4.08683511753989       -3.45112239775104        0.48602515732814
H            1.66852824913238       -2.83951502136262       -0.00679953028142
25
 energy: 0.000000000000 xtb: 6.6.1 (8d0f1dd)
C            3.40750720670717        1.31636050944054        0.17204982448473
N            2.44221077502994        0.27680144438195        0.09312645624300
C            2.79300010620631       -1.05705705103053        0.09030180173879
N            1.64609579593399       -1.86293213385401        0.02983481748457
C            0.52625649597902       -0.98571897034741       -0.01118274746725
C            1.09028879268475        0.32479912861824        0.02082295973172
C            0.15297272625499        1.45725982985417       -0.00333947387182
O            0.54042324732921        2.59436641830522       -0.00099130349419
N           -1.29028942073239        0.90369672737308       -0.08842767286758
C           -2.10245541371556        2.15795078905997       -0.21283805936305
C           -1.93594101988499       -0.36203213483276       -0.06832789857877
O           -3.33519523179425       -1.90398147233599        0.11690877646883
N           -0.80987098812559       -1.33118722084152       -0.08821736223026
C           -1.49031633045861       -2.63437465447678       -0.12431007208969
H            4.00490215488294        1.27005369430029        1.08857232163166
H            4.11416026801642        1.32945414733683       -0.67703267145843
H            2.88881871252017        2.28575104339225        0.16903785487144
H            3.77249755558177       -1.46698962093100        0.12514808106490
H           -1.38896196888182        2.95503360480506       -0.33718767736139
H           -2.75684519744966        2.12243197541567       -1.07421247556352
H           -2.67750058600560        2.34547279318352        0.73954680630840
H           -0.95331290561481       -3.41180447252211       -0.31594901506357
H           -2.49336970768204       -2.60458772410216       -0.75184254703021
H           -4.27890140101172       -3.45757127287775        0.42074270145411
H            1.69676096410278       -2.82839056223518        0.00151014293110
25
 energy: 0.000000000000 xtb: 6.6.1 (8d0f1dd)
C            3.41254169215180        1.32557194665935        0.17437743112643
N            2.45490298805751        0.24718513099020        0.08295735640474
C            2.79232595839671       -1.09857811128214        0.08740853763729
N            1.63829160977218       -1.82694599755217        0.02785307436629
C            0.54930815805900       -0.97565243407949       -0.01329161613811
C            1.12157826264890        0.31716443723518        0.01543802698123
C            0.18593946938347        1.48937281397195       -0.00354789517438
O            0.55966231188519        2.57076141207962        0.00067271913052
N           -1.26667753922500        0.93288775954096       -0.08679082264466
C           -2.09256721089918        2.17374169314317       -0.20317299433553
C           -1.91957662438797       -0.32241634100415       -0.08435139247902
O           -3.39499750482838       -2.05525740253174        0.11507276088150
N           -0.82953733753986       -1.29270757529354       -0.09576405083660
C           -1.41965457424090       -2.60783391956483       -0.13893686176462
H            4.02945578386742        1.26356984048188        1.08039779443051
H            4.10461413094684        1.35671785842961       -0.68472885619602
H            2.90705430902050        2.29511400579444        0.19639980353095
H            3.76461922893624       -1.43882268324808        0.12818165583640
H           -1.39937354273635        2.97916727418782       -0.37382286852397
H           -2.74274293324074        2.11599390702005       -1.06526976477666
H           -2.65627658451171        2.36801247260345        0.73016897947597
H           -0.88043719306237       -3.43120270303084       -0.35976434708482
H           -2.60609828153761       -2.52595537414255       -0.67853712317605
H           -4.46249180676598       -3.42703744732104        0.34402735949864
H            1.71733437151463       -2.81587225528217        0.02040654519187
25
 energy: 0.000000000000 xtb: 6.6.1 (8d0f1dd)
C            3.40463204776360        1.33837161085344        0.17036889948387
N            2.46270066104048        0.21448133758763        0.08212196676139
C            2.77020661331063       -1.13819483909139        0.08085821845270
N            1.63472986252762       -1.79618387738814        0.02295592129740
C            0.57426948435643       -0.97269925237395       -0.01532107833628
C            1.15026490123131        0.30537677994611        0.01188368695311
C            0.22091951007335        1.51759441619270       -0.00403550732914
O            0.57265368070682        2.56235655241729        0.00918470951323
N           -1.26146288353084        0.96907537412692       -0.08637696765677
C           -2.07945528309198        2.18715637390722       -0.19322390514041
C           -1.88424265816021       -0.28365989063776       -0.09438007953699
O           -3.46994183794749       -2.19803612895178        0.10170644718679
N           -0.83960600899106       -1.25031362539553       -0.10009629418941
C           -1.34771448641883       -2.58358481440411       -0.15104821687982
H            4.05237881468504        1.24828298790931        1.07034378253164
H            4.07989200554832        1.34922112332285       -0.68806063809440
H            2.91717336716899        2.29456199926531        0.22372430710939
H            3.75391080737154       -1.41068581182976        0.13514470345025
H           -1.39836223287802        3.01806514607751       -0.36701514828635
H           -2.73061504156153        2.11207525332031       -1.05433547156339
H           -2.63251246853225        2.37101568847009        0.71055891065296
H           -0.77326726562622       -3.42581153396899       -0.33014351857756
H           -2.62412432407457       -2.52846380731504       -0.57673203398457
H           -4.64866545366301       -3.39401398928248        0.26937654467771
H            1.69053065918987       -2.83070785358217        0.02292820306689
25
 energy: 0.000000000000 xtb: 6.6.1 (8d0f1dd)
C            3.41497248049546        1.31756324587397        0.16834316445616
N            2.47009528713412        0.17578460127468        0.08287989067302
C            2.73278006367906       -1.13662974137830        0.07816226940068
N            1.62906297832298       -1.76618316526957        0.01573708928169
C            0.59934125392363       -0.96973899785631       -0.01860502896360
C            1.17099245292786        0.27599349684738        0.01158255455473
C            0.26328261952315        1.53500198783241       -0.00516210351089
O            0.56559623149859        2.59172568857693        0.01289718518135
N           -1.24915000078122        1.00353513232320       -0.08680876042542
C           -2.06814589059307        2.20056119700214       -0.18173112736380
C           -1.84950048859918       -0.24784197746123       -0.09857186438395
O           -3.55227644971485       -2.33761393200788        0.07847412549832
N           -0.84019901862760       -1.20746617927337       -0.09910402863960
C           -1.27457549041945       -2.56173151444943       -0.16202785549261
H            4.04977698886089        1.22774540464307        1.05837594472850
H            4.07107425650363        1.32460860531846       -0.69309508641920
H            2.90148587943380        2.27827323384733        0.23124851127474
H            3.75206004640829       -1.41118940714295        0.14165680299507
H           -1.40947377026969        3.04503142592445       -0.33573040965762
H           -2.71748315037796        2.11663242854322       -1.04496658842803
H           -2.63434116331807        2.36622335621603        0.70403440853908
H           -0.67491145404790       -3.41089575620106       -0.28860275535867
H           -2.55769629995654       -2.54530456988388       -0.44899557424430
H           -4.83710443987546       -3.37310106460698        0.19966395606712
H            1.67012198922156       -2.84711189227385        0.01209818949730
25
 energy: 0.000000000000 xtb: 6.6.1 (8d0f1dd)
C            3.42630797015548        1.29869745302492        0.16584852940747
N            2.47762510255615        0.13822552257095        0.08448496140939
C            2.71249241370407       -1.08795985683108        0.07747738682047
N            1.63827039295409       -1.74852061445900        0.00869943419490
C            0.62343791942991       -0.96829622993780       -0.02487692659948
C            1.17366541163340        0.27497056468782        0.00772997547514
C            0.31530776719061        1.54728770728512       -0.00840770925839
O            0.55881254614813        2.62206942028777        0.01841910261053
N           -1.24026318691838        1.03908836452975       -0.08596604330767
C           -2.05592220524174        2.21302085228972       -0.17012974370735
C           -1.80952248506225       -0.21697036142025       -0.09825263122171
O           -3.62772048726729       -2.48278933721991        0.05540327341024
N           -0.83267945060164       -1.16290898371696       -0.08971511359686
C           -1.19884730538383       -2.54980138397391       -0.16771152769579
H            4.03802430994171        1.21101277912609        1.05990836921624
H            4.09084952106591        1.30349771907941       -0.69591632425215
H            2.88713544558982        2.27263241098337        0.20149254275754
H            3.75833837218115       -1.44259867865235        0.13934315460924
H           -1.42887992087177        3.06446594645390       -0.30319425334988
H           -2.70539962178150        2.12432685241230       -1.03634061043883
H           -2.63877623904393        2.33711313310169        0.71404994174601
H           -0.59280787289929       -3.39640844193237       -0.22943257496156
H           -2.45672228286121       -2.57424452825749       -0.35085311158135
H           -5.00373214677501       -3.29430013138608        0.11809751029865
H            1.64367092258823       -2.83103529853620        0.00539955430113
25
 energy: 0.000000000000 xtb: 6.6.1 (8d0f1dd)
C            3.43201683383541        1.31044373909204        0.15586156818043
N            2.49028153152260        0.13508983938995        0.08193816384022
C            2.70818149657372       -1.06195435244219        0.07608752012073
N            1.65732288745348       -1.77830876130060        0.00598466976969
C            0.63702699666318       -0.95956565165658       -0.03438753051777
C            1.15887120900223        0.30480717082585        0.00411572291383
C            0.33342297257348        1.53710353704286       -0.01214284386114
O            0.56045041571391        2.64691245517792        0.02949394390408
N           -1.21952999836359        1.06562223344664       -0.07903338922458
C           -2.04093181708235        2.22620401263179       -0.15872264333561
C           -1.76772265817908       -0.18767241529319       -0.09763375668186
O           -3.73333403849423       -2.60048428725859        0.05702591801518
N           -0.82138430055809       -1.12336456462409       -0.08208980186729
C           -1.20078004698973       -2.58863921844108       -0.16625354037234
H            4.02602884993779        1.23043182694781        1.07358538785816
H            4.10773023671902        1.28258893694779       -0.68825354158024
H            2.88348592424323        2.26963834803571        0.16844090243550
H            3.77645228979427       -1.46651968615843        0.13544580120880
H           -1.44201714876864        3.09348363393574       -0.27461950304844
H           -2.69059000229964        2.13219715952166       -1.02888772326001
H           -2.64377969063380        2.30875019093410        0.72544403826619
H           -0.51068502853803       -3.37478173902132       -0.15226031739251
H           -2.38129823236086       -2.58795722883931       -0.23358254967461
H           -5.17364475494544       -3.21309769076432        0.04097910914113
H            1.61604481296569       -2.81854775031952       -0.00261126002154
25
 energy: 0.000000000000 xtb: 6.6.1 (8d0f1dd)
C            3.44543568178651        1.32350580826212        0.15484417300965
N            2.50611192594539        0.16675450764660        0.07710844417484
C            2.74993338590621       -1.08186401149000        0.07519476897039
N            1.64770910273209       -1.81147170509843        0.00489896717593
C            0.61209816293588       -0.95353439026166       -0.03420642763972
C            1.13109061982192        0.32759301334285        0.00546063909105
C            0.34202490912281        1.48374653992381       -0.01462813732260
O            0.58307715164853        2.67107141892051        0.03042316486649
N           -1.20287024521519        1.04084954365000       -0.07579221645633
C           -2.03612619248973        2.22754967676400       -0.14385351755731
C           -1.72995690356422       -0.15623515267020       -0.09718832163487
O           -3.85753496114969       -2.70707582582141        0.06656186632583
N           -0.80156267285797       -1.09939766901320       -0.10125979203514
C           -1.21999885940158       -2.59267177351323       -0.17146631593998
H            4.01184502201986        1.24865093051265        1.08545503070869
H            4.12713518799244        1.26439714937730       -0.67882110766493
H            2.88788596546163        2.26267566489495        0.13542471021509
H            3.78270186335197       -1.48403861769934        0.12192252078176
H           -1.45127155285039        3.12477501695853       -0.24670284701081
H           -2.68870850575006        2.14554737125886       -1.03078683433304
H           -2.65269577928474        2.28476289842696        0.74233001308447
H           -0.45341421043848       -3.37729519688232       -0.06138733813937
H           -2.29081682178569       -2.59591318577075       -0.13017611715571
H           -5.32199230238297       -3.09380866024576       -0.05580441470317
H            1.59360405173406       -2.79838884211655       -0.00809158518639
25
 energy: 0.000000000000 xtb: 6.6.1 (8d0f1dd)
C            3.45405418428516        1.31087420566741        0.16021469206935
N            2.51486227639615        0.19938572328676        0.08074405543291
C            2.78688097823634       -1.09070767768482        0.07959182649134
N            1.64310502350211       -1.84207482051259        0.00770702632131
C            0.57869956100981       -0.94996426691874       -0.03374746351109
C            1.10741567468020        0.34983053144164        0.00760348278824
C            0.35843496915446        1.44551418755686       -0.01586472894449
O            0.61072903202122        2.68707639614277        0.03054441211076
N           -1.20488727998179        1.04906553392920       -0.09602840519601
C           -2.03140590340653        2.24236792854766       -0.13778652087030
C           -1.70085199298796       -0.11851604202216       -0.10101251295818
O           -3.95487509438371       -2.83598518490612        0.06701616346482
N           -0.76046195792557       -1.12153014724184       -0.09324210789374
C           -1.21582073778557       -2.52401395964436       -0.18828879621298
H            4.00998726584830        1.26251863289481        1.10372914039619
H            4.14875288887499        1.25251676017424       -0.66854473051861
H            2.89650761154832        2.24316937248643        0.11064603269797
H            3.80062640038300       -1.51022946623088        0.11687174393929
H           -1.44718434071015        3.16042997188817       -0.22662657045650
H           -2.67698427177300        2.15575153148318       -1.02157312723687
H           -2.65907921840462        2.27139333007778        0.76443022978901
H           -0.48270515949217       -3.33233492801675       -0.00080908816110
H           -2.22811759050672       -2.58411026799342       -0.03670931288278
H           -5.22452374046878       -3.06335217179048       -0.03679764835770
H            1.58150471378833       -2.79023882485418       -0.01681787269840
25
 energy: 0.000000000000 xtb: 6.6.1 (8d0f1dd)
C            3.45541804920064        1.28883469606293        0.16332215938980
N            2.52499104829674        0.23123570632994        0.07985798807736
C            2.80566603446154       -1.13362583189886        0.07669638849915
N            1.63978368424013       -1.81591599665476        0.00744257130785
C            0.57627751077306       -0.95998503972326       -0.02820700224853
C            1.11226355028733        0.37401462891468        0.01128821920883
C            0.37744571870326        1.48149717804281       -0.01101009436483
O            0.64083239659168        2.69449129455566        0.02715804828383
N           -1.20021511597585        1.08767771130206       -0.09973839143017
C           -2.02367576206602        2.25272017873267       -0.14292531349725
C           -1.67731443519769       -0.07460407579879       -0.11424408029945
O           -4.04368745324651       -2.97487886232914        0.06724480442957
N           -0.76721852902494       -1.16172090090711       -0.09625740645161
C           -1.24907998929104       -2.45530389870710       -0.17206414840749
H            4.00482486454354        1.24999145077139        1.09916709612536
H            4.15204163530346        1.24165217596282       -0.67363601730375
H            2.88988644677434        2.23499597265111        0.11003696033976
H            3.77864036979204       -1.51999775355367        0.11443789124233
H           -1.44726331777468        3.16637872634866       -0.20927213408092
H           -2.66623680950023        2.15546356844772       -1.00945094602307
H           -2.63492772310255        2.26925795544649        0.75703931671041
H           -0.58720623352881       -3.28633065539753        0.00980056182837
H           -2.30640282848880       -2.53416603926726       -0.10379647570928
H           -5.02884093851034       -3.00119241509675       -0.01788110010600
H            1.58621213171198       -2.82146098549053       -0.01797498332575
