  72
        -99.36975114
 N         -4.1139760226        1.9335180243        1.9155472491
 C         -2.9185306063        2.0758949156        1.4545547216
 C         -2.5320486752        3.2044920736        0.7212309372
 C         -4.1207365604       -0.4280663027       -0.4497783907
 C         -5.3323124665       -0.7578741888       -1.0383693089
 C         -6.0049660401       -1.9147448484       -0.6667433794
 O         -7.1768485569       -2.3370768005       -1.1736484032
 C         -7.8119878883       -1.5729202576       -2.1732005663
 C         -5.4402740610       -2.7587149706        0.3322858023
 O         -6.1632697712       -3.8530435473        0.6326100557
 C         -5.6938847245       -4.7420131077        1.6187166169
 C         -4.2262881715       -2.4088016180        0.9081369076
 C         -3.5700734714       -1.2517704230        0.5144308918
 C         -1.1519205298        3.2617456198        0.1547698853
 C         -0.6254730667        1.9142494171       -0.2234086981
 C          0.5566129139        1.4365608402        0.2038825043
 N          1.0847269007        0.2116875248       -0.0549181252
 C          2.4849278239       -0.0276103613        0.1738770528
 C          3.3299989696        0.1943553280       -1.0993993569
 C          4.7949532231        0.1119751423       -0.7886972060
 C          5.5549745168        1.2630250787       -0.6398884801
 C          6.9084383827        1.1906955438       -0.3520565080
 C          7.5316887666       -0.0398316625       -0.1947902988
 O          8.8342473556       -0.2322724510        0.0756808458
 C          9.6896008374        0.8827733565        0.1826880448
 C          6.7571656151       -1.2281145265       -0.3284660749
 O          7.4393866201       -2.3753594894       -0.1547238721
 C          6.7673558685       -3.6057830351       -0.2848742914
 C          5.4061570548       -1.1289605338       -0.6232615667
 C          0.3845219413       -0.7306490052       -0.8890225645
 C         -3.4935819331        4.3404332347        0.6071215132
 C         -3.5994496149        5.0405949640        1.9748797033
 C         -3.1687846113        5.3611297687       -0.4767327251
 H         -5.7493612517       -0.1042037752       -1.7869955420
 H         -8.0719522343       -0.5749404255       -1.8085102445
 H         -8.7225456914       -2.1160241275       -2.4210472943
 H         -7.1873799158       -1.4859133439       -3.0673056022
 H         -5.6145087110       -4.2519163349        2.5937301900
 H         -6.4361550984       -5.5359428010        1.6739846080
 H         -4.7247483901       -5.1717767732        1.3453458592
 H         -3.7842065620       -3.0350126257        1.6661042811
 H         -2.6273379218       -1.0015878891        0.9787241838
 H         -1.1576785829        3.9023655338       -0.7319914102
 H         -0.4779209830        3.7346092919        0.8801548383
 H         -3.6205867673        0.4785218129       -0.7513851877
 H         -1.2494301304        1.3449940941       -0.8939407470
 H         -2.1355994251        1.3219538038        1.6111422284
 H          1.1712359540        2.0506111849        0.8501321149
 H          2.6193825604       -1.0557196605        0.5247567870
 H          2.8383090147        0.6466562586        0.9569615000
 H          3.0925316841        1.1788539990       -1.5052887508
 H          3.0630799831       -0.5597676571       -1.8415375974
 H          5.0949745835        2.2314585674       -0.7626723875
 H          7.4741065554        2.1030788300       -0.2558610508
 H          9.3940053114        1.5364347824        1.0084504546
 H          9.7150888922        1.4575623523       -0.7477555335
 H         10.6782039658        0.4740890060        0.3819232140
 H          7.5221087040       -4.3713594571       -0.1152908897
 H          5.9733963144       -3.7088517095        0.4621530365
 H          6.3460306492       -3.7283087111       -1.2871876076
 H          4.8134794356       -2.0222295073       -0.7429190162
 H          0.4158345840       -0.4472092337       -1.9472774357
 H         -0.6605916824       -0.7937435903       -0.5822688240
 H          0.8359086213       -1.7143359657       -0.7750456756
 H         -4.4785120721        3.8999154437        0.4110372971
 H         -2.6354871437        5.4498654281        2.2703706795
 H         -3.9342495388        4.3345932730        2.7289713271
 H         -4.3180740030        5.8535346312        1.9149511204
 H         -2.2486830948        5.8955583060       -0.2527546519
 H         -3.0799282777        4.8869648919       -1.4517306944
 H         -3.9707801908        6.0933225683       -0.5338019727
 H         -4.3042461636        1.1028169583        2.4599207826
