  25
        -42.03556619
 C          2.5173178426        1.8043123268        0.6536679914
 N          1.3790976332        0.9819393481        0.2824076763
 C          2.1323775834       -2.7503011487       -1.2228138837
 N          1.0888882738       -2.5695670082       -0.5564395413
 C          0.6604880598       -1.2937192667       -0.0541895035
 C          1.5812256428       -0.2946236768       -0.0920117928
 C          0.1669265011        1.6866297671        0.2191213460
 O          0.1357967687        2.8365209001        0.5488742904
 N         -0.9503452733        1.0625588397       -0.3545582191
 C         -1.9466071427        2.0275113605       -0.8336091428
 C         -1.5115617482       -0.1630578692       -0.0444350036
 O         -2.6846266811       -0.3781707186       -0.1090945854
 N         -0.6329165464       -1.1941405300        0.3716973435
 C         -1.2747664269       -2.3707360296        0.9301030426
 H          2.4125305985        2.1205716978        1.6926053416
 H          3.4391286356        1.2444274974        0.5318267384
 H          2.5391308241        2.7049042546        0.0390793117
 H          2.5961843638       -0.5477213379       -0.3893468831
 H         -1.4288663461        2.8756727664       -1.2728547821
 H         -2.5735690030        1.5354558024       -1.5731513642
 H         -2.5764519789        2.3814313410       -0.0158404213
 H         -0.6221935979       -2.8330730144        1.6692745857
 H         -1.5643636836       -3.0894681164        0.1548436744
 H         -2.1956316574       -2.0513498795        1.4166253181
 H          0.4284193429       -3.3381474090       -0.3712260155
