  25
        -42.16928353
 C          3.3840686824        0.5869301954        0.0153621276
 N          2.2449484673       -0.2849695913       -0.0024804920
 C          2.2480727078       -1.6368266630       -0.0081523293
 N          1.0354448298       -2.1518772760       -0.0073874802
 C          0.1902580453       -1.1021492412        0.0000185723
 C          0.9300398984        0.0904534122        0.0042235543
 C          0.2966175792        1.3812663664       -0.0022435129
 O          0.8631791212        2.4546578977       -0.0136797406
 N         -1.0965885754        1.2703089350        0.0032741696
 C         -1.8678142733        2.4988278770        0.0014628405
 C         -1.8482521062        0.1001868560        0.0047328044
 O         -3.0539657110        0.1373554335        0.0078995545
 N         -1.1597441330       -1.1119023639        0.0011211078
 C         -1.8982855048       -2.3521749047       -0.0021741028
 H          3.8926376581        0.5283901198        0.9807963333
 H          4.0899859688        0.3014156577       -0.7657285834
 H          3.0519938785        1.6129951309       -0.1460729724
 H          3.1402023430       -2.2323898899       -0.0142412993
 H         -1.1747377269        3.3395063390        0.0088583985
 H         -2.5033592294        2.5417716450       -0.8857505828
 H         -2.5162941367        2.5353080216        0.8794117157
 H         -1.6350995626       -2.9431281649        0.8764046993
 H         -1.6503544742       -2.9298287292       -0.8941109425
 H         -2.9629011287       -2.1200149400        0.0081784787
 H          1.7162499487       -4.9504959214       -0.0375933929
