  25
        -42.12314893
 C          3.0612629120        0.4631536650        0.9839940879
 N          2.3647598527       -0.1959744180       -0.1020257975
 C          3.0039908579       -0.6925843915       -1.0729176637
 N          0.6955398799       -2.4527672352        0.2450614708
 C          0.1388643017       -1.3064192751        0.1011270031
 C          0.9329048087       -0.1318430824       -0.0493193712
 C          0.3553269208        1.1787127912       -0.1245891492
 O          1.0112005660        2.2065561821       -0.1996843250
 N         -1.0358137532        1.2200892407       -0.1124993353
 C         -1.6929971243        2.5063083631       -0.2175486381
 C         -1.8566454425        0.1181703035       -0.0000158065
 O         -3.0588249456        0.2327871972        0.0031955988
 N         -1.2425739451       -1.1184977668        0.1161350638
 C         -2.1117006294       -2.2688657807        0.2670302054
 H          2.6735439575        0.1125418935        1.9436217761
 H          4.1275094893        0.2541233697        0.9054636087
 H          2.9001554918        1.5459819065        0.9134611116
 H          2.5976059865       -1.1883235574       -1.9363774996
 H         -0.9297273411        3.2839545136       -0.2105340896
 H         -2.2716982917        2.5583913448       -1.1432054275
 H         -2.3849559447        2.6393708616        0.6167884065
 H         -1.9906002154       -2.7179843609        1.2574198657
 H         -1.9010881098       -3.0122236703       -0.5047777289
 H         -3.1433138588       -1.9282192790        0.1613577942
 H          0.1410353579       -3.2828590357        0.4149767824
