  72
        -99.25011396
 N         -1.7203603715        2.7624983231        2.4657740724
 C         -1.7138880439        2.1322535645        1.3882563453
 C         -2.8944308441        1.9954469338        0.4752570625
 C         -3.4134322570        0.5692548458        0.4869294232
 C         -4.3556770613        0.1974081201       -0.4351994340
 C         -4.9135235912       -1.0436796347       -0.5644881252
 O         -5.8309525978       -1.3902320374       -1.4792513740
 C         -6.4399929997       -0.3338169538       -2.1826118708
 C         -4.4596716413       -2.0512395141        0.3492209833
 O         -5.0204491011       -3.2643810906        0.1927536225
 C         -4.7274026963       -4.2888560282        1.1154510910
 C         -3.5181537543       -1.7007538709        1.3096385024
 C         -3.0021618467       -0.4143655604        1.3919489647
 C         -2.4173414894        2.3190600763       -0.9622152719
 C         -1.5099283553        1.2505235577       -1.5969746480
 C         -0.1580028705        1.1731465044       -1.0098445819
 N          0.4825150128        0.0561825381       -0.7076585473
 C          1.8710657536        0.0842195430       -0.3094165197
 C          2.8058317033       -0.3344459728       -1.4602621782
 C          4.2374164181       -0.2359088528       -1.0120830179
 C          4.9306502065        0.9591469459       -1.1253282375
 C          6.2413160715        1.0640278028       -0.6878007622
 C          6.8868978075       -0.0267532785       -0.1215467718
 O          8.1515842475       -0.0410971380        0.3327762109
 C          8.9369886478        1.1244599636        0.2254835718
 C          6.1819047178       -1.2573480558        0.0029786519
 O          6.8816243093       -2.2636590659        0.5596186844
 C          6.2831072752       -3.5308111362        0.6952401691
 C          4.8705098583       -1.3366154625       -0.4405041989
 C         -0.1431657941       -1.2401754313       -0.8245385203
 C         -4.0920042953        2.9194717214        0.8476195659
 C         -4.6945439461        2.5398133158        2.1978658055
 C         -3.7292974429        4.4007728649        0.8422831102
 H         -4.5911063430        1.6148130603       -3.0357975292
 H         -7.1085419603        0.2350972938       -1.5278839565
 H         -7.0009515847       -0.7806280820       -2.9993910957
 H         -5.6812055746        0.3762915251       -2.5865611846
 H         -5.0051223220       -4.0016106291        2.1337552191
 H         -5.3276033829       -5.1416534088        0.8040618516
 H         -3.6680603807       -4.5629235970        1.0878711267
 H         -3.1833901983       -2.4398046443        2.0201831624
 H         -2.2888443391       -0.1705842131        2.1646995881
 H         -3.3065398278        2.3863954337       -1.6003001649
 H         -1.9076039730        3.2831241711       -0.9688318839
 H         -2.0202689748        0.2895594627       -1.5788393781
 H         -1.3922044281        1.5390159060       -2.6495780860
 H         -0.8179519830        1.6270532674        0.9759737776
 H          0.4101306089        2.0902316788       -0.9395990034
 H          2.0138441654       -0.5918149859        0.5381191242
 H          2.1362328209        1.0939552919        0.0106083110
 H          2.6352765408        0.3276631466       -2.3107122159
 H          2.5775095139       -1.3558922257       -1.7662372237
 H          4.4548903113        1.8194958118       -1.5708141656
 H          6.7568262071        2.0039317900       -0.7968252230
 H          8.5087334324        1.9502205029        0.8016050231
 H          9.0584412552        1.4300642998       -0.8178812075
 H          9.9081017032        0.8610442750        0.6399777038
 H          7.0446246110       -4.1673437927        1.1414400605
 H          5.4111972399       -3.4938136607        1.3561721103
 H          5.9910518586       -3.9424132801       -0.2757134412
 H          4.3309342856       -2.2671515552       -0.3580767702
 H         -0.3437940482       -1.4876149301       -1.8687759897
 H         -1.0865180533       -1.2601246535       -0.2735127957
 H          0.5174342691       -1.9963321388       -0.4084885623
 H         -4.8499083779        2.7417077285        0.0743117436
 H         -3.9637804467        2.6899628305        2.9873442848
 H         -5.0176524905        1.5016079387        2.2070129881
 H         -5.5578473594        3.1681110849        2.4013802185
 H         -2.9470566298        4.6011330375        1.5693922256
 H         -3.4041660720        4.7352146329       -0.1390648836
 H         -4.6047027414        4.9831175340        1.1178558267
 H         -0.8613921085        2.8131528855        3.0033172427
