25
 energy: 0.000000000000 xtb: 6.6.1 (8d0f1dd)
C            3.23720163006194        1.16630919979326        0.08434469647475
N            2.29877817382611        0.07527477071623        0.03981603040599
C            2.58028210190900       -1.21425402444508        0.03006176031096
N            1.43813958087363       -1.93419271955128        0.00098261760884
C            0.39035688448383       -1.05887472636071       -0.00790371836672
C            0.93510056364412        0.21347819449412        0.01709077491437
C            0.09450143893243        1.40504303904423       -0.00410947031874
O            0.49712751527797        2.54126714362870       -0.00342325688240
N           -1.25076640035757        1.06271879480407       -0.03085478223738
C           -2.21907211982101        2.15522099834493       -0.05001256985998
C           -1.81739487048744       -0.20012725993278       -0.04692818574614
O           -2.99983886758376       -0.37846417018721       -0.07008878229737
N           -0.92618586207120       -1.30210215599479       -0.03682761578324
C           -1.46982264913417       -2.64643102187190       -0.06029820460571
H            3.71247264356769        1.21471455160235        1.06488849150277
H            4.00791497605742        1.03430808813993       -0.67357694370751
H            2.69910007168542        2.09770118228144       -0.09130154882931
H            3.56654120610678       -1.63682992603973        0.04233140067262
H           -1.67107961066214        3.09322851271934       -0.02552706933167
H           -2.82428953597071        2.09428624779827       -0.95318082946668
H           -2.87644029173232        2.07745725625962        0.81450067533302
H           -1.17061996399332       -3.19584890659852        0.83242232437030
H           -1.14560257411436       -3.17511610292205       -0.95688275822323
H           -2.55549792440841       -2.55659984320617       -0.07459039797972
H            1.38130855184625       -2.94313852034425       -0.01389874181052
25
 energy: -1.966507390351 xtb: 6.6.1 (8d0f1dd)
C            3.23439380028446        1.17075365729056        0.08566673915412
N            2.31613861661062        0.08138756268411        0.03755296347070
C            2.65617314337171       -1.24229954780830        0.03129124575223
N            1.45683507436391       -1.94601149700863        0.00142308553995
C            0.40453884133541       -1.06734511101566       -0.00837814116790
C            0.93292902977542        0.21045883554554        0.01509777592266
C            0.09512863777596        1.38806175979461       -0.00476114276380
O            0.48966900493178        2.55436787114611       -0.00337510880846
N           -1.27011716257687        1.05293130671911       -0.03112178749104
C           -2.23163251324235        2.15351667552225       -0.04978373112299
C           -1.83156999869135       -0.19814626732938       -0.04775815676481
O           -3.02944409198367       -0.37737512258393       -0.07115365815517
N           -0.93764085735230       -1.30119692871207       -0.03736467652230
C           -1.49831392904487       -2.63501760144830       -0.06078199873887
H            3.70779489902316        1.21088008149559        1.06918065702504
H            3.99924229946004        1.02877810786454       -0.67777273035724
H            2.68328529261170        2.09219554418929       -0.09144962730995
H            3.73247468320064       -1.62537147005079        0.04756246260747
H           -1.67419924731086        3.08766408275734       -0.02519707762414
H           -2.84062235458421        2.10470244644636       -0.95267576546889
H           -2.89280274622901        2.08779380283128        0.81434762298324
H           -1.20304651600629       -3.18901182669890        0.83162020209085
H           -1.17783146709358       -3.16856288250959       -0.95705919275068
H           -2.58445641202891       -2.53579971481244       -0.07519723970823
H            1.37528864133567       -2.94832516213669       -0.01287882364456
25
 energy: 7.351595460100 xtb: 6.6.1 (8d0f1dd)
C            3.22816682208544        1.16885556212479        0.08623366719584
N            2.32520376092090        0.07664272330823        0.03313678303835
C            2.72938578597042       -1.26746824011324        0.03298790030956
N            1.48160956916867       -1.95565310364805        0.00267219676802
C            0.42166000634429       -1.08189502556582       -0.00876901188564
C            0.93021124381051        0.20162844869166        0.01263446663872
C            0.09662930043848        1.36540837428858       -0.00525519888774
O            0.47172839945494        2.54642413764349       -0.00329496279343
N           -1.28818896890998        1.04647186295205       -0.03133764126927
C           -2.24288430390795        2.15479649650763       -0.04942599612074
C           -1.83527807752965       -0.19647002795641       -0.04842197087947
O           -3.03809444465846       -0.38006637925833       -0.07235289483853
N           -0.94139816205672       -1.30076126220231       -0.03777223722331
C           -1.53138060146635       -2.62166303389955       -0.06141347935429
H            3.70301454210178        1.20923578956338        1.07033043077093
H            3.99151754805639        1.02830622566958       -0.68001467657678
H            2.66972514877844        2.08502289792049       -0.09014616141336
H            3.90322946185634       -1.58327426942079        0.05360205521794
H           -1.67858219338686        3.08572132380784       -0.02466387094371
H           -2.85652377588376        2.11533007470812       -0.95105064467420
H           -2.90850982205582        2.09818063097759        0.81336457506557
H           -1.25051851166266       -3.18431985182865        0.83091821453088
H           -1.22487009674647       -3.16414648069522       -0.95794412436088
H           -2.61748029564722       -2.50249261234952       -0.07595550442616
H            1.37384233286149       -2.95478565905355       -0.01102801774101
25
 energy: 14.089400904797 xtb: 6.6.1 (8d0f1dd)
C            3.22577255427649        1.16825662328752        0.08602973134747
N            2.32834242376378        0.07100264355928        0.03003890343348
C            2.75843776601740       -1.27655810038663        0.03390955469510
N            1.49408414357974       -1.95979733318525        0.00401354767782
C            0.42970586395531       -1.09167093152109       -0.00853613489997
C            0.93114254295906        0.19609735064868        0.01164842106092
C            0.09917120847551        1.35842108607529       -0.00528356151400
O            0.46293445608674        2.54042102331566       -0.00307677348436
N           -1.29363488975133        1.04680033143899       -0.03145925767610
C           -2.24774340479275        2.15511519740474       -0.04930625263520
C           -1.83362057706082       -0.19699986384200       -0.04877087567694
O           -3.03605391586675       -0.38433429101696       -0.07328181059816
N           -0.93945866813163       -1.30259933125542       -0.03770045556515
C           -1.54904655880240       -2.61625413262234       -0.06169874818006
H            3.70020525642043        1.21077235323458        1.07041764705088
H            3.98972726177408        1.03376444903717       -0.68072004501469
H            2.66421383693337        2.08319955833462       -0.08901271552562
H            3.98366647918594       -1.56149932613856        0.05544045813870
H           -1.68335551439974        3.08547616258147       -0.02440534061162
H           -2.86279383134555        2.11658645335956       -0.95030938118116
H           -2.91462470777265        2.09918395656972        0.81288279283936
H           -1.28034112174968       -3.18376656358552        0.83098471618140
H           -1.25415469402243       -3.16362094583259       -0.95884742092068
H           -2.63421433727714       -2.48013229886780       -0.07641145276533
H            1.37385309548126       -2.95883546842112       -0.00951165002881
25
 energy: 16.360647285405 xtb: 6.6.1 (8d0f1dd)
C            3.22518070748201        1.16768463240331        0.08593480450371
N            2.32828023261524        0.06853623953241        0.02860517029311
C            2.76123462704518       -1.27766512860268        0.03439991322570
N            1.49472596265178       -1.95978819931415        0.00449596807136
C            0.42975294426568       -1.09370531014506       -0.00836868603905
C            0.93161181209090        0.19523703400777        0.01140903096297
C            0.10069113770433        1.35958633647718       -0.00535546160412
O            0.46074085458704        2.53994763296816       -0.00286221289465
N           -1.29382686952337        1.04849805430583       -0.03151688990402
C           -2.24876326376418        2.15519175487046       -0.04931268800108
C           -1.83338879607912       -0.19670191492146       -0.04882351973887
O           -3.03521125330077       -0.38416836591592       -0.07353542379999
N           -0.93883501250941       -1.30318188208348       -0.03752821774122
C           -1.55195687308448       -2.61597379058021       -0.06167943482684
H            3.69859855383392        1.21043469605700        1.07059261877819
H            3.98924714150209        1.03519561324397       -0.68073981238728
H            2.66320124434997        2.08274457760771       -0.08880205027105
H            4.00706416074235       -1.55963898785766        0.05551688606576
H           -1.68563602296087        3.08597962373517       -0.02440516771772
H           -2.86382387561026        2.11566035946808       -0.95026999573194
H           -2.91557547170053        2.09819473429295        0.81288735681982
H           -1.28563989549511       -3.18367367464952        0.83093162211683
H           -1.25929403622520       -3.16346470173030       -0.95883493012032
H           -2.63647441923446       -2.47699145928344       -0.07645672005824
H            1.37031107855350       -2.95890927171412       -0.00924826385375
25
 energy: 18.487177731918 xtb: 6.6.1 (8d0f1dd)
C            3.22471152825032        1.16696287418451        0.08588061522186
N            2.32746503974963        0.06673635963674        0.02707384933175
C            2.75805281543440       -1.27673987683914        0.03531900313073
N            1.49273942703320       -1.95869454414477        0.00484531005434
C            0.42769582448299       -1.09375812460872       -0.00830200319859
C            0.93168247605090        0.19557803955201        0.01126181511748
C            0.10198853476340        1.36238819614788       -0.00551099100860
O            0.45901546704613        2.54121875874822       -0.00259148137801
N           -1.29334904335163        1.04983198170106       -0.03158558393395
C           -2.24912740058893        2.15505259463355       -0.04932851165540
C           -1.83409444707578       -0.19631146534759       -0.04881915637325
O           -3.03526554252056       -0.38322593742942       -0.07360142074858
N           -0.93869027092588       -1.30329612525727       -0.03733749101042
C           -1.55208165608193       -2.61656340689921       -0.06160907830830
H            3.69688417370744        1.20916843135702        1.07082725770948
H            3.98875953947462        1.03496706497967       -0.68047981032594
H            2.66290567944656        2.08230749145905       -0.08895128878171
H            4.02656996031780       -1.56348131985649        0.05527262014503
H           -1.68735385123681        3.08651410215842       -0.02442170375016
H           -2.86422328930724        2.11493598155673       -0.95026854606196
H           -2.91588071305083        2.09742391542709        0.81292757352423
H           -1.28584917772427       -3.18350527216754        0.83093771142427
H           -1.25945781611264       -3.16318469456092       -0.95876814078020
H           -2.63619234086899       -2.47751992420865       -0.07641002706827
H            1.36530975102433       -2.95777649805017       -0.00932662512852
25
 energy: 19.609541821494 xtb: 6.6.1 (8d0f1dd)
C            3.22454101903391        1.16680028556614        0.08588173023999
N            2.32684590548672        0.06682932326569        0.02637171882052
C            2.75337759699855       -1.27506435513505        0.03638181640699
N            1.49087330340362       -1.95788951469536        0.00487492682344
C            0.42580053284706       -1.09250283745659       -0.00842550856047
C            0.93116715942988        0.19645723292437        0.01124832225784
C            0.10203249906995        1.36373988068570       -0.00562507173893
O            0.45855442364089        2.54268137022172       -0.00250513861665
N           -1.29332651247168        1.04961715976720       -0.03162644969403
C           -2.24903809236003        2.15495535092754       -0.04933237009919
C           -1.83524223992712       -0.19610684150062       -0.04878824137533
O           -3.03622198813447       -0.38276457482711       -0.07348149996122
N           -0.93920577182053       -1.30298032675606       -0.03728967578754
C           -1.55109527532279       -2.61701601106151       -0.06157715507174
H            3.69626435073750        1.20838753917909        1.07093418321269
H            3.98866635637699        1.03396468137884       -0.68016065427279
H            2.66305922324149        2.08221393115828       -0.08922939206714
H            4.03563310248651       -1.56906127814943        0.05482511541734
H           -1.68741385078415        3.08663802598545       -0.02441175236207
H           -2.86418233650658        2.11517357544235       -0.95028618769873
H           -2.91581296628976        2.09764215004584        0.81296219757067
H           -1.28369844073834       -3.18348114774708        0.83098158400235
H           -1.25737099166365       -3.16309515456014       -0.95877421841542
H           -2.63534351194177       -2.47926355812974       -0.07635346066726
H            1.36335117314402       -2.95684630435752       -0.00956092221602
25
 energy: 20.141788780752 xtb: 6.6.1 (8d0f1dd)
C            3.22452554381442        1.16702013541327        0.08590491188225
N            2.32671070084421        0.06766955812921        0.02630057735023
C            2.75043080574806       -1.27395092685580        0.03749092057781
N            1.49019622894959       -1.95776166326880        0.00469492011078
C            0.42497281748150       -1.09150212146138       -0.00866783560626
C            0.93052243202889        0.19704757744159        0.01121942604344
C            0.10141457397129        1.36360590918185       -0.00570883214284
O            0.45887758509076        2.54323403843241       -0.00260209768392
N           -1.29381408348596        1.04900341477698       -0.03164998763187
C           -2.24905795445841        2.15510624489607       -0.04931543130705
C           -1.83610748675971       -0.19591292316324       -0.04877024002313
O           -3.03715780323048       -0.38274922257364       -0.07332684434467
N           -0.93994145789212       -1.30269776840514       -0.03735974703175
C           -1.55062366844755       -2.61706682949356       -0.06158614426794
H            3.69634253925244        1.20836652760429        1.07095955285183
H            3.98879301733825        1.03341358640935       -0.67997846985325
H            2.66313366167025        2.08233393572377       -0.08938938051890
H            4.03964454698029       -1.57306413723298        0.05432609306172
H           -1.68690161253390        3.08659991202556       -0.02438172422622
H           -2.86417974366883        2.11574905294902       -0.95029572325260
H           -2.91581012751356        2.09820582197788        0.81301037747944
H           -1.28237141601221       -3.18350438785685        0.83099354295916
H           -1.25612987279862       -3.16313313507962       -0.95879247659363
H           -2.63511593184812       -2.48032563837747       -0.07632052413607
H            1.36386137341572       -2.95665835902077       -0.00972096754932
25
 energy: 20.273792651032 xtb: 6.6.1 (8d0f1dd)
C            3.22456482091248        1.16721898874852        0.08592485921065
N            2.32682490859019        0.06821603364260        0.02652593855112
C            2.74971103459144       -1.27372938603288        0.03832474624780
N            1.49031258851871       -1.95795182417731        0.00446405336849
C            0.42500660679575       -1.09128537850162       -0.00889270224297
C            0.93016260748949        0.19714141177782        0.01113593317102
C            0.10086355291600        1.36308063305314       -0.00575838600791
O            0.45930998299290        2.54304037095582       -0.00272875009330
N           -1.29423813630638        1.04880334116878       -0.03165644534758
C           -2.24920732900450        2.15534763760535       -0.04929224708661
C           -1.83634624234701       -0.19575269157842       -0.04877192442768
O           -3.03749226140069       -0.38285684504275       -0.07323855072810
N           -0.94039674507677       -1.30263182499314       -0.03746376582641
C           -1.55069088237181       -2.61694581744624       -0.06160914612282
H            3.69660117552248        1.20864696312658        1.07094687503810
H            3.98889216508536        1.03340961715732       -0.67997868970636
H            2.66310278868846        2.08244689442126       -0.08940089999011
H            4.04067685776167       -1.57430577117883        0.05394133643639
H           -1.68661098252938        3.08658702560708       -0.02435898481540
H           -2.86426980238141        2.11608462152195       -0.95028279437983
H           -2.91589589247037        2.09853477847946        0.81304826974775
H           -1.28224680541653       -3.18348653150223        0.83097828353644
H           -1.25605700812854       -3.16317870564239       -0.95878957483954
H           -2.63528339105998       -2.48051641122811       -0.07631236918466
H            1.36492105656465       -2.95688852776975       -0.00972116836119
