  25
        -42.13151944
 C          3.0705401375        0.8600330800        0.7794437385
 N          2.3223483578        0.1260251592       -0.2767971470
 C          2.6201164845       -1.3216669372       -0.2405725151
 N          1.4589688854       -1.9101512489       -0.1157084185
 C          0.3734293756       -1.0232402533       -0.0722465660
 C          0.8830847281        0.2349554017       -0.1703373693
 C          0.0564955878        1.4201836687       -0.1578952557
 O          0.4635378524        2.5526388984       -0.2337868718
 N         -1.2885353047        1.0745666894       -0.0407068445
 C         -2.2588051826        2.1633349523       -0.0194781185
 C         -1.8370444123       -0.1885891337        0.0645512267
 O         -3.0116311417       -0.3829461627        0.1671520792
 N         -0.9283140984       -1.2871162709        0.0450840818
 C         -1.4603249353       -2.6320862584        0.1570774012
 H          2.7771691200        0.4834195663        1.7563277060
 H          4.1380686987        0.7047300506        0.6378674209
 H          2.8278872923        1.9200140257        0.7096098412
 H          2.6677131052        0.5186241687       -1.1739706641
 H         -1.7177465517        3.0982939276       -0.1404560058
 H         -2.9762533737        2.0314558641       -0.8281520598
 H         -2.7985675317        2.1585522773        0.9265448158
 H         -1.0898215277       -3.1186154049        1.0596638850
 H         -1.2041987368       -3.2219533710       -0.7231973870
 H         -2.5448681599       -2.5460450631        0.2218699733
 H          1.3785387444       -2.9182249112       -0.0527636745
