25
 energy: 0.000000000000 xtb: 6.6.1 (8d0f1dd)
C            3.23720163006194        1.16630919979326        0.08434469647475
N            2.29877817382611        0.07527477071623        0.03981603040599
C            2.58028210190900       -1.21425402444508        0.03006176031096
N            1.43813958087363       -1.93419271955128        0.00098261760884
C            0.39035688448383       -1.05887472636071       -0.00790371836672
C            0.93510056364412        0.21347819449412        0.01709077491437
C            0.09450143893243        1.40504303904423       -0.00410947031874
O            0.49712751527797        2.54126714362870       -0.00342325688240
N           -1.25076640035757        1.06271879480407       -0.03085478223738
C           -2.21907211982101        2.15522099834493       -0.05001256985998
C           -1.81739487048744       -0.20012725993278       -0.04692818574614
O           -2.99983886758376       -0.37846417018721       -0.07008878229737
N           -0.92618586207120       -1.30210215599479       -0.03682761578324
C           -1.46982264913417       -2.64643102187190       -0.06029820460571
H            3.71247264356769        1.21471455160235        1.06488849150277
H            4.00791497605742        1.03430808813993       -0.67357694370751
H            2.69910007168542        2.09770118228144       -0.09130154882931
H            3.56654120610678       -1.63682992603973        0.04233140067262
H           -1.67107961066214        3.09322851271934       -0.02552706933167
H           -2.82428953597071        2.09428624779827       -0.95318082946668
H           -2.87644029173232        2.07745725625962        0.81450067533302
H           -1.17061996399332       -3.19584890659852        0.83242232437030
H           -1.14560257411436       -3.17511610292205       -0.95688275822323
H           -2.55549792440841       -2.55659984320617       -0.07459039797972
H            1.38130855184625       -2.94313852034425       -0.01389874181052
25
 energy: -3.591450624301 xtb: 6.6.1 (8d0f1dd)
C            3.24982801777609        1.19239855771860        0.09195547138489
N            2.31864324793984        0.10432181500141        0.04384882489548
C            2.61830507426798       -1.22058365181070        0.03703666225058
N            1.45057454270761       -1.93756044480135        0.00606991655999
C            0.40712453429132       -1.06392547470295       -0.00877965916396
C            0.93947717512075        0.21942472979072        0.01813796818683
C            0.11117332870467        1.39239698076096       -0.00561058002366
O            0.50605953746752        2.55870747816003       -0.00501015996919
N           -1.24903721904076        1.04554585914336       -0.03464913835010
C           -2.21250357263527        2.13761284325343       -0.06151300358541
C           -1.81193771303184       -0.20460274741231       -0.04493623117498
O           -3.00792387088010       -0.38707798998356       -0.07103872373381
N           -0.93168310628596       -1.30817187701779       -0.03369410250130
C           -1.52933702616783       -2.63241730409087       -0.05263731165582
H            3.75212642887136        1.22515298740995        1.06269000589342
H            4.00257078778271        1.07847267709242       -0.68986584520370
H            2.69663580734970        2.11839054098801       -0.05420676721881
H            3.60126316881933       -1.63653030113372        0.05636141455557
H           -1.65571726245766        3.07151832226034       -0.03956496744895
H           -2.81475992365282        2.07580352943262       -0.96742120154209
H           -2.87190528268153        2.06633737566059        0.80269639344326
H           -1.12816950492953       -3.23731770152199        0.76391378127452
H           -1.28078542797790       -3.14808270537478       -0.95574717221735
H           -2.64507026694854       -2.57914365647156       -0.02697608963636
H            1.39726319352705       -2.94164124017885       -0.00402558887176
25
 energy: 1.744468540648 xtb: 6.6.1 (8d0f1dd)
C            3.26370567661337        1.22504545345143        0.10366486867578
N            2.34033761859515        0.13672148796486        0.05222035925430
C            2.66323892157214       -1.21946971972634        0.05207073538531
N            1.47443815433869       -1.93512238813043        0.01728049985424
C            0.42882997508582       -1.07723244648684       -0.00622338381046
C            0.94368176979139        0.22188086534310        0.02043953295530
C            0.13556971037008        1.36956194490869       -0.00803265776442
O            0.50953949047530        2.55984863181268       -0.00680077049911
N           -1.24436745098075        1.02388955764164       -0.04301233403599
C           -2.20055461721699        2.11521319877436       -0.08249519575483
C           -1.79472393908491       -0.21263337566036       -0.04561341096180
O           -2.99906067773945       -0.39802534654739       -0.07536105050798
N           -0.93544080283347       -1.32133814214289       -0.02583249230022
C           -1.61085624077241       -2.61793524228735       -0.04031763669585
H            3.81692069654399        1.23310001636399        1.05275474475543
H            3.98632357431563        1.15355429257762       -0.71832598319453
H            2.69233066715173        2.14944474315169        0.01387131828949
H            3.64585159179526       -1.62054853516811        0.08317582273306
H           -1.63473169944545        3.04449144220610       -0.06470603308450
H           -2.79803607754536        2.04727950576524       -0.99178645318893
H           -2.86436576341525        2.05086003108303        0.77935382192092
H           -1.06033221743854       -3.30822284904385        0.65271833266713
H           -1.52410971979536       -3.10322017188263       -0.99016340037800
H           -2.76153302004407       -2.59109661736857        0.08452569482280
H            1.43955904759961       -2.93701773442773        0.01362896701015
25
 energy: 10.705593198771 xtb: 6.6.1 (8d0f1dd)
C            3.27240405300553        1.25242053973078        0.11285737868189
N            2.35769759174242        0.15698127344307        0.06212014485590
C            2.69843291427804       -1.21245192904380        0.06784718012887
N            1.50545648420278       -1.93233457230553        0.03199825440163
C            0.44861773610881       -1.09608187909565        0.00246202168592
C            0.95064113177718        0.21689778543711        0.02473809000627
C            0.15568253324793        1.35433476793681       -0.00977677002243
O            0.51096490398080        2.55467064978728       -0.00774280219920
N           -1.23678853116578        1.00915259362516       -0.05255855954831
C           -2.18931009550073        2.09696619395580       -0.10453534716444
C           -1.77561955410648       -0.22366738628900       -0.04928248490365
O           -2.98401283578173       -0.40838492898593       -0.08316252135885
N           -0.93279041011819       -1.34099026245119       -0.01391575774792
C           -1.67526666333672       -2.61378381998276       -0.02632526971090
H            3.87908917385585        1.23335486998285        1.03438734580522
H            3.96025718521100        1.23128784310843       -0.74942609803008
H            2.68723566377663        2.17732840175790        0.08730328405042
H            3.68614126076136       -1.59673320544468        0.11050463125443
H           -1.61889969166219        3.02320092292602       -0.09094605994423
H           -2.78178501391251        2.01925870976697       -1.01653641394037
H           -2.85682548242011        2.03655183288105        0.75474733348063
H           -1.01723266156500       -3.37524345916866        0.53017365136299
H           -1.78105597129491       -3.04497191514463       -1.02951178783419
H           -2.84750882007681       -2.59322841403091        0.20837507637508
H            1.49668976692896       -2.93550601022446        0.03323937646257
25
 energy: 16.849322982061 xtb: 6.6.1 (8d0f1dd)
C            3.27599055753693        1.27037247225452        0.11538936912938
N            2.36910415627670        0.16403290565042        0.07016256456121
C            2.71948217451205       -1.20180979444036        0.07868412069809
N            1.53569199935513       -1.92928459401529        0.04713828621954
C            0.46175343887812       -1.11511120639348        0.01718442106758
C            0.95872051266602        0.20662430161000        0.03030718784122
C            0.16909981369139        1.34722760291258       -0.00978666039983
O            0.51193525989830        2.54412654647891       -0.00608062828199
N           -1.22752336024689        1.00115866958265       -0.06002408989657
C           -2.17996815941231        2.08425960681918       -0.11976551113317
C           -1.75957485587550       -0.23492100312768       -0.05635033625882
O           -2.96768278913665       -0.41523699885151       -0.09469768236728
N           -0.92880213123918       -1.36195853990420       -0.00140363330563
C           -1.71915776654351       -2.61708160338905       -0.01644827131330
H            3.92941072163047        1.22724007606681        1.00610149100526
H            3.92786239145199        1.29669905437665       -0.77907277322996
H            2.68461953762037        2.19465793065006        0.14959492683799
H            3.71500265273576       -1.57091297667054        0.12908947475814
H           -1.60904844151153        3.00934363943325       -0.10957695754026
H           -2.76963540175521        1.99729552534945       -1.03251053748264
H           -2.84896203502982        2.02500874066794        0.73818277581722
H           -1.03176099578936       -3.41247343837039        0.41766460419469
H           -1.96124715731283       -2.97862452999453       -1.02026166211302
H           -2.89805107722336       -2.60641538792838        0.28438421721898
H            1.55495562275901       -2.93518839659505        0.04912920012042
25
 energy: 18.692589575517 xtb: 6.6.1 (8d0f1dd)
C            3.27421918701138        1.27456460407292        0.11391763668126
N            2.37257533348702        0.15796508533391        0.07633315455268
C            2.72134414236222       -1.18934277897609        0.08637940410260
N            1.55694135250502       -1.92586719482545        0.06142203101784
C            0.46538491921839       -1.12766259282953        0.03348193434240
C            0.96556669737748        0.19578792462868        0.03435697819928
C            0.17391711242813        1.34885216157872       -0.00962731365487
O            0.51294084227173        2.53315252328596       -0.00527375498348
N           -1.21785094890820        0.99898191287211       -0.06402445832451
C           -2.17431292917966        2.07790054109142       -0.13095033737322
C           -1.75037896582230       -0.24479988321865       -0.05857598852499
O           -2.95497841914392       -0.41912131842217       -0.10843546853441
N           -0.92444134481497       -1.37809831704930        0.01354544278804
C           -1.73046156316779       -2.62806716001018       -0.00999317070943
H            3.95168318660483        1.21677981553401        0.97611453709940
H            3.89535065535235        1.32934732951875       -0.79187983545062
H            2.68859468505309        2.19331801598764        0.18489867675389
H            3.72379694080685       -1.54962103142771        0.14370474132496
H           -1.60757941992241        3.00479886309394       -0.12431000664989
H           -2.76321138589748        1.98393133139630       -1.04300594930359
H           -2.84390812493786        2.02079343253097        0.72654870488674
H           -1.04616304782190       -3.43546160656736        0.30360748623241
H           -2.07403600489165       -2.88295674894815       -0.99601341843357
H           -2.90179182977784       -2.63248090421124        0.35162643331282
H            1.59901359774356       -2.93366540226754        0.06318643679549
25
 energy: 20.217507353319 xtb: 6.6.1 (8d0f1dd)
C            3.27164394428144        1.27075681855739        0.11254058659174
N            2.37186187809269        0.15047003897815        0.08313621751165
C            2.71477440041931       -1.18079054501027        0.09569310972542
N            1.56477701082882       -1.92437174308097        0.07968628836222
C            0.46542251808774       -1.12948939905142        0.05332439473680
C            0.96860759593429        0.19229419556231        0.03979957463538
C            0.17371334941290        1.35192696249609       -0.00949172683624
O            0.51524088064775        2.53069654541825       -0.01040273124477
N           -1.21096753733966        0.99695232798680       -0.06615710353825
C           -2.17235846939381        2.07436609953907       -0.14618589625698
C           -1.74628384656470       -0.25132777616415       -0.05107432994664
O           -2.94798882824451       -0.42540553737986       -0.11885965280289
N           -0.91817901417521       -1.38250782202558        0.04156784581257
C           -1.71953779085984       -2.63474370189753       -0.00248988332166
H            3.96283603137610        1.19871742111875        0.95501021275323
H            3.86513134875265        1.33595897687862       -0.80306325077752
H            2.68793492551262        2.18287871454677        0.20758885207774
H            3.71865559733378       -1.54031969000580        0.16122489929535
H           -1.61171266896266        3.00533271057686       -0.14474178167530
H           -2.75949171875180        1.97469932537152       -1.05871144600517
H           -2.84465873585782        2.02455633542210        0.70997646855987
H           -0.99699292691929       -3.48651230225974        0.16957728530367
H           -2.18226257851657       -2.74987291033440       -1.00134746260428
H           -2.87397668084906       -2.66406723079641        0.44571864721688
H            1.61602598369090       -2.93116921227463        0.08471477857444
25
 energy: 18.158398464628 xtb: 6.6.1 (8d0f1dd)
C            3.26873412509823        1.26325287969310        0.10760582528740
N            2.36772062484427        0.14158667928044        0.08527590250893
C            2.70325351090583       -1.17624634005408        0.09572571519705
N            1.56207816019672       -1.92555666045070        0.09017836410420
C            0.46209569914548       -1.12510790261197        0.06718406237815
C            0.96855188622501        0.19256729894583        0.04490860662560
C            0.16812402494288        1.35329293383447       -0.00655779879484
O            0.51712558699385        2.52960954095990       -0.01139052403507
N           -1.20752779646054        0.99466391813415       -0.06448092384037
C           -2.17265064689488        2.07283955997521       -0.14888616276203
C           -1.74665357561211       -0.25522281218265       -0.04895767318849
O           -2.94453808227007       -0.43333287662904       -0.12432876051090
N           -0.91134765931573       -1.37898363870660        0.05785250225852
C           -1.70032124981214       -2.63650677458067       -0.00925216880993
H            3.97055855622803        1.17940144762848        0.93976091291515
H            3.84262347680043        1.33121096433902       -0.81982198749190
H            2.68212529316886        2.17285564954802        0.21944746138412
H            3.70573897257132       -1.54147234066536        0.16415487769022
H           -1.61603899121760        3.00698083762441       -0.14963701074284
H           -2.75914441788920        1.97271894256242       -1.06159880659899
H           -2.84597322766196        2.02717878698382        0.70682569893504
H           -1.01256041273406       -3.47014505064886        0.10275918168040
H           -2.17487260096567       -2.68235874741166       -0.95746393180854
H           -2.82414687789341       -2.69360553660162        0.45215437044233
H            1.60926028954252       -2.93059215679412        0.09557616332407
25
 energy: 17.622508037647 xtb: 6.6.1 (8d0f1dd)
C            3.26966938924746        1.26429169795820        0.10608691937502
N            2.36860798516940        0.14404872896955        0.08631722726540
C            2.70644878109712       -1.17902812422333        0.09881057965695
N            1.56029025538386       -1.92834906231775        0.09781142137074
C            0.46470463298825       -1.12334544277014        0.07547260306725
C            0.96783673362800        0.19523759136934        0.04748473114882
C            0.16658570564725        1.35065674918454       -0.00640845247446
O            0.51780342598461        2.53179118692755       -0.01556716969575
N           -1.20928595625002        0.99222331169074       -0.06379107556684
C           -2.17376784665582        2.07077207703238       -0.15259126642619
C           -1.74558822841249       -0.25617123499961       -0.04297391902313
O           -2.94366097787202       -0.43942502748704       -0.12266870044699
N           -0.90743733035370       -1.37703402557676        0.07482026811046
C           -1.69825774690142       -2.63411138809117       -0.01338350530249
H            3.97254873528645        1.18173585881116        0.93691684010475
H            3.84229914478265        1.33015038247873       -0.82150571487975
H            2.68309925862766        2.17273263901556        0.21587267077529
H            3.70694882422159       -1.54712765481011        0.17119653095536
H           -1.61604190602901        3.00455536787692       -0.15508663253018
H           -2.75839437022084        1.96841149729647       -1.06639678799154
H           -2.84793332578487        2.02732074183308        0.70239134322651
H           -0.99646749642744       -3.47684114951864        0.04917216152553
H           -2.21382507503054       -2.63580601007225       -0.95815284033325
H           -2.80536875020421       -2.71469587107295        0.47721927652912
H            1.60140080601415       -2.93296423733252        0.10598738770662
25
 energy: 16.462167191498 xtb: 6.6.1 (8d0f1dd)
C            3.27096143728818        1.26527523611382        0.10515117970292
N            2.36914445566897        0.14819791133554        0.08479617275869
C            2.71207901554471       -1.18659765451808        0.09823464001369
N            1.55391833751140       -1.93281505149559        0.10099296372259
C            0.46714913904312       -1.12030476765861        0.07816074856958
C            0.96598758917941        0.19871517826254        0.04851898757610
C            0.16334294876030        1.34666654795792       -0.00766835433232
O            0.51859379531587        2.53386168237097       -0.02141829394864
N           -1.21449847175524        0.99125789740585       -0.06213697359102
C           -2.17651339287937        2.07081952720664       -0.15364863442485
C           -1.74657462300577       -0.25424322914573       -0.03453337469363
O           -2.94577757825707       -0.44422871559768       -0.11501418328836
N           -0.90511495551576       -1.37326278676980        0.09239675308417
C           -1.69660457378739       -2.63066418217951       -0.02288815436686
H            3.96452899222411        1.19266197646199        0.94382316377950
H            3.85581105436130        1.32155501623555       -0.81477986626009
H            2.68469936711766        2.17478685735818        0.19853193580636
H            3.70896025458161       -1.55908040536380        0.17653623743145
H           -1.61529166120668        3.00260102249324       -0.15677642983069
H           -2.75918859961142        1.96720465092500       -1.06868007739581
H           -2.85126482749392        2.02805337655914        0.70048280064317
H           -0.98193978962607       -3.46880853426185        0.00375902286325
H           -2.23540772516916       -2.60144683325275       -0.95267572766990
H           -2.77665289066333       -2.74365680493803        0.49277776933763
H            1.58186737031054       -2.93751931333305        0.11309159066035
25
 energy: 15.502791470531 xtb: 6.6.1 (8d0f1dd)
C            3.27099111396597        1.26423672222838        0.10571702124823
N            2.36861645627923        0.14812155932196        0.08371659238657
C            2.71319236341221       -1.18918406190642        0.09505012969499
N            1.55151819341538       -1.93349326208942        0.10009006126825
C            0.46725571474124       -1.11954048401821        0.07677302634460
C            0.96603388324024        0.19834073391085        0.04891986727802
C            0.16173442185028        1.34633942008171       -0.00928922494648
O            0.51845322167581        2.53309297130313       -0.02450170995396
N           -1.21620608429805        0.99222767939298       -0.06144114453881
C           -2.17767860481532        2.07198006771403       -0.15441594111397
C           -1.74735513813868       -0.25343540651634       -0.02990607770262
O           -2.94668850107842       -0.44550946700300       -0.10844335512054
N           -0.90510563557593       -1.37294657864013        0.10002058280490
C           -1.69330056185523       -2.63174463693767       -0.02562423911986
H            3.95821040905524        1.19671550633623        0.95221012326426
H            3.86485187712695        1.31459035299656       -0.81123399675372
H            2.68278029674345        2.17580202296042        0.18947118979681
H            3.70878542823383       -1.56228091717583        0.17763989673905
H           -1.61576553378533        3.00322254794723       -0.15752655245633
H           -2.75985984218457        1.96834549846372       -1.06974861672078
H           -2.85321110643204        2.02964563645087        0.69909932116210
H           -0.97982933569920       -3.46373366509688       -0.01046898508306
H           -2.24207928579670       -2.58686246655952       -0.94990354373642
H           -2.75761859027631       -2.75642169893915        0.49729735972399
H            1.57448950813196       -2.93847947205358        0.11353211168201
25
 energy: 14.971037544051 xtb: 6.6.1 (8d0f1dd)
C            3.27017253250419        1.26269012573709        0.10635950558512
N            2.36712698334877        0.14721785805347        0.08200567029107
C            2.71285552318865       -1.19028700580042        0.09032858429882
N            1.55011881775482       -1.93297763327243        0.09835978243002
C            0.46605592032139       -1.11976695688846        0.07415628702076
C            0.96608667529654        0.19670671042078        0.04903784280001
C            0.16106036494650        1.34690114716969       -0.01072163474853
O            0.51804366006686        2.53129476128005       -0.02688941454430
N           -1.21668386294726        0.99392890706989       -0.06055860414951
C           -2.17789145416228        2.07352635332729       -0.15499388423571
C           -1.74820059620087       -0.25218035731833       -0.02547231820289
O           -2.94744942341203       -0.44434595870400       -0.10173872254998
N           -0.90701704097219       -1.37318434002457        0.10603685446725
C           -1.69431994980701       -2.63197212516891       -0.02845446905502
H            3.94783734817887        1.20246072942587        0.96315797095548
H            3.87687824186698        1.30481010827821       -0.80423028025991
H            2.68165989479084        2.17679602875192        0.17582381860040
H            3.70809586303751       -1.56205974647993        0.17888322870071
H           -1.61603627332041        3.00460898094669       -0.15780478918987
H           -2.75964095490573        1.96997784656779       -1.07061389053866
H           -2.85443163201178        2.03138918224170        0.69780184065865
H           -0.97489999005341       -3.46442660152453       -0.02736781117525
H           -2.24447149103135       -2.57603292910181       -0.94292290323350
H           -2.74401240327280       -2.76759389789182        0.50482038975578
H            1.57127791473124       -2.93845258492332        0.11203084246630
25
 energy: 14.764386698711 xtb: 6.6.1 (8d0f1dd)
C            3.26975756051474        1.26270441959284        0.10660634932126
N            2.36691683503952        0.14710850102677        0.08097289145284
C            2.71291183225244       -1.18912422255449        0.08769757290626
N            1.55190095438735       -1.93219194903341        0.09769701275877
C            0.46632575192168       -1.12068938168627        0.07282674405199
C            0.96656169569720        0.19583769259182        0.04886672195720
C            0.16185436658427        1.34721156845055       -0.01048188994841
O            0.51743895689215        2.53080098872412       -0.02655545202150
N           -1.21560804684855        0.99332551529393       -0.06023535105376
C           -2.17734239816034        2.07255304645882       -0.15461357234386
C           -1.74741667012510       -0.25325221230795       -0.02557016612916
O           -2.94667982274002       -0.44456471257577       -0.10142060174491
N           -0.90683510308992       -1.37464622403252        0.10523498186633
C           -1.69481073685417       -2.63280486612529       -0.02867114054071
H            3.94288653404720        1.20521044459585        0.96758526557912
H            3.88177699741500        1.30124459361396       -0.80058547735743
H            2.68173998620008        2.17748946066054        0.17000292445557
H            3.70869050685346       -1.55909409659270        0.17952266398467
H           -1.61628550346385        3.00413247800747       -0.15696586565386
H           -2.75902384064134        1.96951918132708       -1.07034599573413
H           -2.85425537646003        2.03031499574571        0.69796372142120
H           -0.97980023529052       -3.46143031192244       -0.02693945743352
H           -2.25186423062122       -2.57629084241073       -0.94375540904181
H           -2.74171777391599       -2.76661916884967        0.50810109465192
H            1.57509242834202       -2.93771629582628        0.11009633074318
25
 energy: 14.925153494225 xtb: 6.6.1 (8d0f1dd)
C            3.26972888716812        1.26294826570586        0.10641363223446
N            2.36695930322553        0.14731530637191        0.08051421091054
C            2.71278616519614       -1.18843110639614        0.08645610891653
N            1.55276580514468       -1.93190965226441        0.09814364850405
C            0.46627936570213       -1.12117339708362        0.07329733215183
C            0.96643411247802        0.19582657320411        0.04912836617761
C            0.16261803932758        1.34729806082519       -0.00980138687440
O            0.51733550482224        2.53110575076081       -0.02604953787930
N           -1.21506806463380        0.99295067746710       -0.06015290882022
C           -2.17691901318913        2.07205438594398       -0.15435638859236
C           -1.74709988649419       -0.25350147500196       -0.02651945583158
O           -2.94646114371091       -0.44386321305360       -0.10293707554135
N           -0.90707480823923       -1.37501383285654        0.10388104519848
C           -1.69629662979956       -2.63234805780208       -0.02786398542702
H            3.94294652139906        1.20523822493964        0.96806726176985
H            3.88228408304095        1.30136779415600       -0.80120239468093
H            2.68141152105561        2.17809949736862        0.17000839828469
H            3.70892888159790       -1.55751292294718        0.18006742348528
H           -1.61609571852670        3.00383550643066       -0.15657086803057
H           -2.75850879644037        1.96902358956050       -1.07017537591949
H           -2.85378903320449        2.02959989224982        0.69824387572643
H           -0.98153505688449       -3.46329935204792       -0.02483282398028
H           -2.25248804899526       -2.57912066536221       -0.94346173339544
H           -2.74477356456119       -2.76407980967330        0.50750881418661
H            1.57784624245742       -2.93738143832332        0.10922771357386
25
 energy: 14.974296335431 xtb: 6.6.1 (8d0f1dd)
C            3.26967632892703        1.26295131300277        0.10615960712212
N            2.36697208291772        0.14743643490337        0.07917154568132
C            2.71235267225253       -1.18789395444366        0.08296279328039
N            1.55331624911733       -1.93169497510173        0.09854093845033
C            0.46598757762126       -1.12164373354873        0.07367764236935
C            0.96604047222371        0.19598572935458        0.04920747083552
C            0.16336887067681        1.34742315956165       -0.00922781368372
O            0.51710110746229        2.53165636755990       -0.02543144874868
N           -1.21479853872385        0.99257616509047       -0.05989456583743
C           -2.17666132905975        2.07162963585103       -0.15357988432989
C           -1.74700876370984       -0.25374770518366       -0.02779465116759
O           -2.94647015755444       -0.44302344666205       -0.10478689091064
N           -0.90752061988747       -1.37529954063489        0.10160309021241
C           -1.69754065911208       -2.63175349955783       -0.02730597644462
H            3.94018125303774        1.20708022076248        0.97031691681816
H            3.88573804967938        1.29921306622607       -0.79929054224082
H            2.68180355413883        2.17854268035286        0.16617507327966
H            3.70868277896360       -1.55590854401791        0.18247696024563
H           -1.61589868020557        3.00352528100722       -0.15565708739648
H           -2.75820386682130        1.96868072881002       -1.06943516130074
H           -2.85332256241434        2.02881269025610        0.69912774919448
H           -0.98282091928693       -3.46487493989469       -0.02275944183686
H           -2.25237820885323       -2.58146488829500       -0.94350319752334
H           -2.74701774463264       -2.76210161586870        0.50920350540529
H            1.58063572117928       -2.93707802735770        0.10707726467344
25
 energy: 14.911044911086 xtb: 6.6.1 (8d0f1dd)
C            3.26976028655247        1.26289447957439        0.10608787868037
N            2.36717613116035        0.14734278780953        0.07883370699517
C            2.71250681724338       -1.18822342561826        0.08128629665681
N            1.55304325880874       -1.93184522927127        0.09866750528285
C            0.46614686155251       -1.12148390982149        0.07428036755241
C            0.96610216723845        0.19609896365579        0.04950777904343
C            0.16319635105834        1.34734612390384       -0.00930045462212
O            0.51715066948301        2.53161193267913       -0.02564338401826
N           -1.21507450615970        0.99267225613058       -0.05974292614527
C           -2.17693369101746        2.07177034226758       -0.15356823732150
C           -1.74701774825463       -0.25374272548319       -0.02751912212449
O           -2.94642798923412       -0.44347701946868       -0.10457736235698
N           -0.90722948202833       -1.37514855797226        0.10198388528584
C           -1.69703798499391       -2.63175627079771       -0.02721266510555
H            3.94001452432322        1.20721735550068        0.97068785415232
H            3.88624900095613        1.29898966099804       -0.79935778719618
H            2.68143079380345        2.17848494141225        0.16572024938107
H            3.70842864347040       -1.55641258471796        0.18394701381580
H           -1.61607678916375        3.00357893320766       -0.15579813105209
H           -2.75859477818541        1.96874574351168       -1.06933071134601
H           -2.85353139554813        2.02911401999840        0.69919510948352
H           -0.98280537784531       -3.46475780413205       -0.02304337298875
H           -2.25252820069551       -2.58064165271264       -0.94326020133653
H           -2.74566305303764       -2.76213027982724        0.50845730019554
H            1.57993015844945       -2.93721947865489        0.10673330523586
