25
 energy: 0.000000000000 xtb: 6.6.1 (8d0f1dd)
C            3.23720163006194        1.16630919979326        0.08434469647475
N            2.29877817382611        0.07527477071623        0.03981603040599
C            2.58028210190900       -1.21425402444508        0.03006176031096
N            1.43813958087363       -1.93419271955128        0.00098261760884
C            0.39035688448383       -1.05887472636071       -0.00790371836672
C            0.93510056364412        0.21347819449412        0.01709077491437
C            0.09450143893243        1.40504303904423       -0.00410947031874
O            0.49712751527797        2.54126714362870       -0.00342325688240
N           -1.25076640035757        1.06271879480407       -0.03085478223738
C           -2.21907211982101        2.15522099834493       -0.05001256985998
C           -1.81739487048744       -0.20012725993278       -0.04692818574614
O           -2.99983886758376       -0.37846417018721       -0.07008878229737
N           -0.92618586207120       -1.30210215599479       -0.03682761578324
C           -1.46982264913417       -2.64643102187190       -0.06029820460571
H            3.71247264356769        1.21471455160235        1.06488849150277
H            4.00791497605742        1.03430808813993       -0.67357694370751
H            2.69910007168542        2.09770118228144       -0.09130154882931
H            3.56654120610678       -1.63682992603973        0.04233140067262
H           -1.67107961066214        3.09322851271934       -0.02552706933167
H           -2.82428953597071        2.09428624779827       -0.95318082946668
H           -2.87644029173232        2.07745725625962        0.81450067533302
H           -1.17061996399332       -3.19584890659852        0.83242232437030
H           -1.14560257411436       -3.17511610292205       -0.95688275822323
H           -2.55549792440841       -2.55659984320617       -0.07459039797972
H            1.38130855184625       -2.94313852034425       -0.01389874181052
25
 energy: -2.849401138973 xtb: 6.6.1 (8d0f1dd)
C            3.25069907753293        1.19408971819564        0.09245520413617
N            2.32003732448103        0.10553781501304        0.04464004819068
C            2.62084412553634       -1.21869665376084        0.03807185061312
N            1.45398691391646       -1.93703494199206        0.00687888499173
C            0.40882910530149       -1.06485518999139       -0.00875707752621
C            0.94082051912246        0.21915768435735        0.01845924348458
C            0.11247593078439        1.39209475109743       -0.00568919675900
O            0.50705351104401        2.55838898305934       -0.00488456313264
N           -1.24740402698080        1.04515716471062       -0.03526984377591
C           -2.21148891729276        2.13665392314179       -0.06276897166448
C           -1.80989058697878       -0.20498573564334       -0.04509727768265
O           -3.00564730636955       -0.38785056863880       -0.07151719921515
N           -0.93106020371883       -1.30894118692617       -0.03332197492823
C           -1.53787402442126       -2.63034307185026       -0.05091001449581
H            3.75570293006664        1.22508338094766        1.06182131486646
H            4.00155410015693        1.08233883519684       -0.69150777208938
H            2.69696078609599        2.12025096686121       -0.05033452195149
H            3.60439527961505       -1.63299934546420        0.05804287239607
H           -1.65586520705252        3.07123315413309       -0.04100036829861
H           -2.81350606291934        2.07385065274446       -0.96874804298083
H           -2.87105610353005        2.06492525780752        0.80124718015470
H           -1.12141340965928       -3.24279649319247        0.75373866604443
H           -1.29867093902287       -3.14448057669056       -0.95173301119726
H           -2.66010676573595       -2.58559029387819       -0.02394842853760
H            1.40283861796446       -2.94115962706572       -0.00283310449540
25
 energy: 5.234614172362 xtb: 6.6.1 (8d0f1dd)
C            3.26591938127947        1.22870428004469        0.10452985616863
N            2.34345731037862        0.14010257158878        0.05402166584323
C            2.66943856865894       -1.21534384850189        0.05465350603752
N            1.48232584082379       -1.93392040574502        0.01931321426574
C            0.43287058968609       -1.07948360119897       -0.00552476014064
C            0.94627326958244        0.22166126313392        0.02093528240409
C            0.13880453729813        1.36924114750923       -0.00824652084678
O            0.51218400930216        2.56014970536450       -0.00623654447415
N           -1.24081586564744        1.02342454916210       -0.04466464554656
C           -2.19857261877065        2.11326924715352       -0.08478639320870
C           -1.78983318937677       -0.21321583321923       -0.04681483829907
O           -2.99413267670812       -0.39941033747559       -0.07728220918853
N           -0.93414606235963       -1.32323290033813       -0.02462415792662
C           -1.62958082088559       -2.61362497429610       -0.03449025359606
H            3.82421045941428        1.23293974007502        1.05089727970780
H            3.98460268173077        1.16067695421347       -0.72161558577821
H            2.69371435832910        2.15322464191739        0.02089291405263
H            3.65335497835555       -1.61241993112236        0.08658576512147
H           -1.63587383388955        3.04437475974064       -0.06716260768636
H           -2.79572110988240        2.04325273921235       -0.99411705209640
H           -2.86251072925138        2.04740620456054        0.77681299695702
H           -1.04526106577127       -3.31893787833665        0.62938789068224
H           -1.56407812449240       -3.09569387680786       -0.97887115012323
H           -2.79742074232309       -2.60821737488811        0.08735115017905
H            1.45300552245511       -2.93589823957420        0.01608909363916
25
 energy: 17.653105310959 xtb: 6.6.1 (8d0f1dd)
C            3.27645704537780        1.25803339340486        0.11380041458473
N            2.36268432885239        0.16257725701538        0.06455758963285
C            2.70809742704818       -1.20622746571368        0.07152732873416
N            1.51727892597245       -1.93006504093846        0.03498558996966
C            0.45500581826658       -1.09921482851651        0.00412099630552
C            0.95453693754352        0.21704411648555        0.02522095883685
C            0.16066698478007        1.35417649814360       -0.01007383410835
O            0.51499083747829        2.55575812499425       -0.00686931169535
N           -1.23156370117142        1.00847049395610       -0.05495608230995
C           -2.18663972524815        2.09376206471506       -0.10706490566399
C           -1.76816091071312       -0.22482751176632       -0.05145212122105
O           -2.97686064984691       -0.41053976003489       -0.08711225517536
N           -0.93075000721809       -1.34454316226698       -0.01192125207591
C           -1.70016068561692       -2.60958024364382       -0.01564568290211
H            3.88890353110728        1.23464479102007        1.03172765370952
H            3.95940099037479        1.24034033931969       -0.75293448434272
H            2.69088429094490        2.18279122801568        0.09504636171045
H            3.69779490048659       -1.58459474506826        0.11463423425979
H           -1.62084617163987        3.02271985496477       -0.09347587224997
H           -2.77892982680276        2.01335607545549       -1.01894556156550
H           -2.85401208052819        2.03068175636725        0.75213558303415
H           -1.00044647815074       -3.38687216294727        0.49561358407526
H           -1.84009415958699       -3.03393824612580       -1.00960230769027
H           -2.90290083774447       -2.62163932869160        0.20719979778788
H            1.51687788397095       -2.93328489597216        0.03651747450700
25
 energy: 27.315649161959 xtb: 6.6.1 (8d0f1dd)
C            3.28217837781343        1.27756976812747        0.11628829433774
N            2.37583983026694        0.17124147778519        0.07291964223455
C            2.73166776717434       -1.19375739040133        0.08312830254354
N            1.55057789490366       -1.92547956388417        0.05081724588110
C            0.46998632076050       -1.11878754546883        0.02003738100844
C            0.96390140983407        0.20713980041884        0.03063518473824
C            0.17552754146999        1.34732039731825       -0.01029990170314
O            0.51655887522495        2.54533822469835       -0.00541236930492
N           -1.22100498088824        1.00011459885738       -0.06281094045060
C           -2.17670125030383        2.07975254488423       -0.12226031323492
C           -1.74991248131374       -0.23711286934354       -0.05904215785565
O           -2.95833925646710       -0.41869932015677       -0.10043762785967
N           -0.92647040413705       -1.36756255577997        0.00127980299120
C           -1.74700494438896       -2.61523686539101       -0.00251965752124
H            3.94080725941825        1.23086527109217        1.00274655104586
H            3.92900873492451        1.30683970734690       -0.78157151778661
H            2.69149969213999        2.20144304863938        0.15657412124921
H            3.72983035669121       -1.55562176354572        0.13339564340922
H           -1.61118981290759        3.00803742106455       -0.11203632699192
H           -2.76635124588258        1.98967163436388       -1.03469138004006
H           -2.84526983910618        2.01700681916635        0.73581731196814
H           -1.01601407661312       -3.42266103719902        0.36963347710283
H           -2.03297663346195       -2.96002331373961       -0.98876768298404
H           -2.97434190103289       -2.64697909819741        0.28065426908334
H            1.58040743381748       -2.93139078848357        0.05295654428662
25
 energy: 31.216149473253 xtb: 6.6.1 (8d0f1dd)
C            3.28236156996328        1.28181550471642        0.11534674014861
N            2.38047021877042        0.16594816299671        0.07884957340200
C            2.73398190126122       -1.18128153729568        0.09098950483357
N            1.57145716699399       -1.92096646901968        0.06467757275045
C            0.47481115244671       -1.12925505580915        0.03619957334238
C            0.97175065090240        0.19809180539011        0.03426359301472
C            0.18029628032807        1.34987076903458       -0.01077074980917
O            0.51728725236888        2.53584161744424       -0.00633389017103
N           -1.21135675991720        0.99751159999708       -0.06640743784351
C           -2.17148799560461        2.07280059872554       -0.13350368338598
C           -1.74023235185633       -0.24787912942777       -0.05933511171743
O           -2.94526409196230       -0.42527274992029       -0.11309861783110
N           -0.92123947442149       -1.38347519632380        0.01687700264379
C           -1.75160404957990       -2.63033498799754        0.00495064738828
H            3.95951611110326        1.22352485687214        0.97638471717316
H            3.90219838274684        1.33452856626420       -0.79000911222856
H            2.69808236240073        2.19998907820276        0.18586663803774
H            3.73848782782350       -1.53539065195495        0.14734605993065
H           -1.61017475543362        3.00306269428784       -0.12688140466354
H           -2.76030958599618        1.97624568797883       -1.04535526606570
H           -2.84081154222838        2.01260274769381        0.72413489037321
H           -1.02412124789669       -3.44327841231608        0.24746729110672
H           -2.14956619182755       -2.85565673409381       -0.96407625229941
H           -2.99408466724917       -2.68181333198944        0.35220200818938
H            1.62176650480017       -2.92820083128412        0.06724960982803
25
 energy: 33.289800520794 xtb: 6.6.1 (8d0f1dd)
C            3.28074295423955        1.27671375923314        0.11300033980043
N            2.37938247357060        0.15724395500464        0.08411665012716
C            2.72511950936293       -1.17348655553873        0.09794091615026
N            1.57654426544951       -1.91913416126626        0.08124049764936
C            0.47423252535819       -1.12820565210142        0.05651178448365
C            0.97506011768085        0.19612941224122        0.03999920598601
C            0.17852721358832        1.35365928558687       -0.01075581007980
O            0.51846563434694        2.53334846304198       -0.01286332321681
N           -1.20528392352544        0.99561459971119       -0.06739870310695
C           -2.17010602131083        2.07002207173134       -0.14596216031602
C           -1.73734815601527       -0.25439732083412       -0.05115105401357
O           -2.93881271033364       -0.43285004668340       -0.11884188325135
N           -0.91415512902326       -1.38587073479711        0.04493004744830
C           -1.73029414002004       -2.64028165782710        0.01008281462143
H            3.96811035985932        1.20686508332022        0.95944041556228
H            3.87806962354310        1.33568312062667       -0.80116839365304
H            2.69674050854604        2.19004788162210        0.20195768820038
H            3.73038183806433       -1.52947766035176        0.15942733069345
H           -1.61415285911382        3.00396267683954       -0.14387911233039
H           -2.75736735228653        1.96930301914774       -1.05826486120821
H           -2.84192483624992        2.01684423601521        0.71044294680044
H           -0.98849397009147       -3.47908029683489        0.12248172788542
H           -2.22537687531031       -2.72804277139398       -0.95232123431810
H           -2.97676452559266       -2.72024350219702        0.42150523977118
H            1.63091814319955       -2.92533860212409        0.08656282646175
25
 energy: 34.760113777490 xtb: 6.6.1 (8d0f1dd)
C            3.27830035299725        1.27089227800041        0.10776238296495
N            2.37643323075160        0.14799489646573        0.08524952616874
C            2.71478335891722       -1.16802648202969        0.09748960385824
N            1.57628355094263       -1.92057401449275        0.09155040507091
C            0.47224935576492       -1.12448213683431        0.07196234535663
C            0.97638949480042        0.19580320902912        0.04497164217329
C            0.17300595573590        1.35429994563658       -0.00882306589290
O            0.51971848413242        2.53053764030372       -0.01532628343562
N           -1.20108394933920        0.99183690203482       -0.06610403651469
C           -2.16954359304666        2.06713053067174       -0.14799766687679
C           -1.73677187180747       -0.26024674814384       -0.04859815242539
O           -2.93389803545008       -0.44243686484826       -0.12143550193919
N           -0.90491446321373       -1.38387241399051        0.06439749216787
C           -1.70711528250232       -2.64584414114091        0.00141215205359
H            3.97419794557750        1.19250899773813        0.94600781198141
H            3.86010288557407        1.33256760599405       -0.81576533867162
H            2.69142215787435        2.18220655929715        0.20934543324992
H            3.71933959277726       -1.53013724948974        0.16095776442491
H           -1.61706682468505        3.00380798944968       -0.14757950762442
H           -2.75621634819093        1.96656272770175       -1.06043223271812
H           -2.84214192594639        2.01756792849687        0.70798493093561
H           -1.01451244387491       -3.45565042918454        0.04562594532651
H           -2.21970297579829       -2.65236155996252       -0.89384197545307
H           -2.94230190637000       -2.75540350824100        0.42102864092551
H            1.62525792231553       -2.92565306028970        0.09719158104093
25
 energy: 33.872278008347 xtb: 6.6.1 (8d0f1dd)
C            3.27907429432908        1.27176358176854        0.10751557637855
N            2.37740858714847        0.15107640795466        0.08527743054537
C            2.71833625756309       -1.17092361620373        0.10096218949426
N            1.57462866324943       -1.92315627825051        0.09725552389599
C            0.47491769867089       -1.12265602705914        0.07822768680510
C            0.97560043902863        0.19873990372120        0.04581375880068
C            0.17193137750838        1.35235230880647       -0.01019014818891
O            0.52015471000477        2.53414901099780       -0.02124896630469
N           -1.20300139851438        0.98996332051029       -0.06608744453976
C           -2.17083076969873        2.06591474698436       -0.15223031049018
C           -1.73605669725550       -0.26062153657252       -0.04063915742546
O           -2.93414671711373       -0.44673078882964       -0.11819141890120
N           -0.90107541611276       -1.38190628313989        0.08240613066207
C           -1.70338702017467       -2.64361778316528        0.00249492726624
H            3.96768512736528        1.19942411821305        0.94964580367528
H            3.86703674720178        1.32561198077208       -0.80945545211752
H            2.69351430194220        2.18167762929123        0.19689657460822
H            3.72086706872327       -1.53545688042566        0.16744867264464
H           -1.61763125970924        3.00247679103946       -0.15330829814077
H           -2.75617773737137        1.96383319122928       -1.06552911384837
H           -2.84422004583041        2.01857040207000        0.70317113757778
H           -0.97975892730971       -3.47785156996674       -0.00070876728954
H           -2.26670378076452       -2.60457362090388       -0.90761793909013
H           -2.93350332990534       -2.77117828512868        0.44918030256503
H            1.61755249496116       -2.92785212154082        0.10594519756456
25
 energy: 32.937512318254 xtb: 6.6.1 (8d0f1dd)
C            3.27939492357250        1.27274802064847        0.10854669003954
N            2.37755350534564        0.15415323330436        0.08308628519574
C            2.72223660414098       -1.17533416840839        0.09872384257858
N            1.57132071744384       -1.92526147739503        0.09403038391635
C            0.47547631069913       -1.12205636933694        0.07354120726092
C            0.97420897565206        0.19985690824436        0.04482114495740
C            0.17106872352870        1.35040586179965       -0.01097655653252
O            0.52091603693757        2.53526578868480       -0.02268704680626
N           -1.20599649372421        0.99051743742455       -0.06559538381034
C           -2.17211224363952        2.06713825196862       -0.15096492978048
C           -1.73729064780045       -0.25813559040624       -0.03785800346068
O           -2.93685382451295       -0.44535067903203       -0.11441387006206
N           -0.90199955928214       -1.38056026055345        0.08412318652879
C           -1.70673159302353       -2.64138205544243       -0.00170458518600
H            3.96062683029798        1.20674421984361        0.95914408705130
H            3.87877473227455        1.32036047120624       -0.80353258515947
H            2.69257820274171        2.18458391311010        0.18646116629488
H            3.72323754208964       -1.54085396618791        0.16651762875008
H           -1.61671570614320        3.00230773385248       -0.15132394763624
H           -2.75712108509881        1.96552742584275       -1.06464424895804
H           -2.84532732631700        2.01866404736480        0.70434209674505
H           -0.97418903040001       -3.47080452603898        0.00665900465990
H           -2.26186700708527       -2.61338131157681       -0.90952897058679
H           -2.92745311835744       -2.77593433461087        0.44641594225238
H            1.60847919859626       -2.93018997213376        0.10385135789522
25
 energy: 31.266365813057 xtb: 6.6.1 (8d0f1dd)
C            3.27955239483796        1.27297599857533        0.10889597701158
N            2.37747517859831        0.15661760158860        0.08025944929208
C            2.72649590815298       -1.17957510057614        0.09514919637046
N            1.56803681009916       -1.92774306603910        0.09294020071097
C            0.47702815106252       -1.12062155179788        0.07154621950507
C            0.97357136611945        0.20079272744784        0.04518405081894
C            0.16846151213806        1.34803282357349       -0.01252092350376
O            0.52168451586111        2.53565220958995       -0.02627843333740
N           -1.20902508674174        0.98997016656033       -0.06488033156381
C           -2.17393565890768        2.06737286607075       -0.15097167276846
C           -1.73773919242256       -0.25756017054178       -0.03185742120807
O           -2.93809166491244       -0.44906187240736       -0.10690696047519
N           -0.89989562050369       -1.37973395727258        0.09645740958207
C           -1.70365571282612       -2.64214296313492       -0.00760366868676
H            3.94937084962990        1.21657173114494        0.97226146060149
H            3.89491514019176        1.30959169735425       -0.79616090146521
H            2.69046484439911        2.18715761178784        0.16870595944786
H            3.72512415026848       -1.54688771524004        0.16645180439138
H           -1.61665913806070        3.00145573825375       -0.15103676601816
H           -2.75811614854684        1.96616354499735       -1.06528807382355
H           -2.84758528476256        2.01882149890114        0.70381741219298
H           -0.97454533163818       -3.46163783779498       -0.00575418926935
H           -2.27339503029134       -2.59422967345685       -0.90829630137042
H           -2.90353968509935       -2.79018054138739        0.44853345661234
H            1.59621740129046       -2.93277316402464        0.10438694310019
25
 energy: 30.644977165699 xtb: 6.6.1 (8d0f1dd)
C            3.27865558346431        1.27174980534827        0.10819803161542
N            2.37588976892333        0.15623058191026        0.07891447031700
C            2.72614821113467       -1.18046140586413        0.09281250439114
N            1.56620574900134       -1.92808058722698        0.09394677521375
C            0.47587605290387       -1.12038958021164        0.07240732836987
C            0.97299719591703        0.19997972262915        0.04654210296678
C            0.16705862161945        1.34771636169770       -0.01306647764901
O            0.52204336870564        2.53437295185439       -0.02807148475371
N           -1.20967156624528        0.99075363478039       -0.06435436458953
C           -2.17411833705650        2.06836644127519       -0.15205739829038
C           -1.73842258009746       -0.25662940228523       -0.02781720798710
O           -2.93847810034493       -0.44924286590159       -0.10303094617849
N           -0.90091747288450       -1.37925738249929        0.10632878311028
C           -1.70544492954417       -2.64211282979824       -0.01052651502438
H            3.94330585734274        1.22027380243357        0.97787413414839
H            3.90203011291182        1.30254519209753       -0.79328222495748
H            2.68964938493996        2.18780433036061        0.15896939277271
H            3.72423261335780       -1.54757296508614        0.16721131803318
H           -1.61646067862011        3.00219352781193       -0.15245803371902
H           -2.75776819763300        1.96667501689125       -1.06665267842196
H           -2.84822940297948        2.02035238807054        0.70236160026094
H           -0.97048044348487       -3.46792393083260       -0.02631210096103
H           -2.27429028228915       -2.57447263855973       -0.89976027904072
H           -2.88980855251551       -2.80053428434194        0.45338236510203
H            1.59221269140904       -2.93330728238133        0.10547480141860
25
 energy: 30.039752624707 xtb: 6.6.1 (8d0f1dd)
C            3.27818983167674        1.27145618778020        0.10811631167398
N            2.37548110203760        0.15575164208615        0.07852284013938
C            2.72574167924912       -1.17950244105005        0.09151980540108
N            1.56745269376990       -1.92744718041310        0.09412545055290
C            0.47587129564204       -1.12126086511557        0.07175342748363
C            0.97337400914409        0.19899527460725        0.04679109402876
C            0.16738426702749        1.34795775142424       -0.01286763629633
O            0.52144046514791        2.53361273932325       -0.02723840294460
N           -1.20878720758214        0.99024625370307       -0.06437974624325
C           -2.17372666869078        2.06749577571969       -0.15217831354819
C           -1.73781750993329       -0.25765953715405       -0.02829308007099
O           -2.93770768217526       -0.44964349175167       -0.10411948194029
N           -0.90107404773581       -1.38058531515548        0.10638466285693
C           -1.70645220759072       -2.64319635790391       -0.01045276077940
H            3.94180313854555        1.22042852868011        0.97870353895889
H            3.90280609019982        1.30141037698665       -0.79241639322132
H            2.69001971935370        2.18797841355233        0.15777164469773
H            3.72434405109748       -1.54529960310545        0.16798919469290
H           -1.61670493907945        3.00168761928277       -0.15236930633407
H           -2.75743804729131        1.96610875932879       -1.06672418124536
H           -2.84805521290539        2.01963173428914        0.70214753945004
H           -0.97510724833196       -3.46588018479828       -0.02696523249198
H           -2.28013232737218       -2.57059761884602       -0.89999477671750
H           -2.88420157783121       -2.79998028542707        0.45659400919323
H            1.59551100156411       -2.93267957387106        0.10461368885111
25
 energy: 29.017597199485 xtb: 6.6.1 (8d0f1dd)
C            3.27754402469998        1.27101895009088        0.10787399703695
N            2.37481693538146        0.15519009322312        0.07803384964712
C            2.72485015295758       -1.17839555222028        0.08940487232628
N            1.56881019245788       -1.92655465980338        0.09508067053455
C            0.47544649010165       -1.12260175123445        0.07146349250356
C            0.97347245879800        0.19779444173111        0.04744536451606
C            0.16826752737021        1.34842702446935       -0.01221437125544
O            0.52067516038619        2.53293795566568       -0.02621878133899
N           -1.20765838198490        0.98987903468407       -0.06419503875150
C           -2.17313922645986        2.06661871720845       -0.15235089795644
C           -1.73716757417513       -0.25852225254099       -0.02913991358885
O           -2.93699592993436       -0.44887731541278       -0.10625987865924
N           -0.90213038058699       -1.38209153944040        0.10574779262766
C           -1.70982182979903       -2.64375150703832       -0.01059450517897
H            3.94132053566533        1.21960954924685        0.97892893338260
H            3.90266992280408        1.30102991579649       -0.79283029603611
H            2.69006929975508        2.18826316373093        0.15802793171204
H            3.72421839955969       -1.54212772195902        0.16980859153397
H           -1.61692741130487        3.00129575999475       -0.15244939446264
H           -2.75688489806420        1.96523827670531       -1.06687044824646
H           -2.84772100328546        2.01895319760447        0.70188201592574
H           -0.98081205383448       -3.46575359757719       -0.02701011909366
H           -2.28597936882722       -2.56885301200573       -0.90096473893765
H           -2.87532967217238       -2.79787068979899        0.46112786340656
H            1.60062129842783       -2.93182787894802        0.10330690450013
25
 energy: 28.199276033317 xtb: 6.6.1 (8d0f1dd)
C            3.27727496251869        1.27075990686581        0.10785370912975
N            2.37455681906282        0.15488455543868        0.07777251110829
C            2.72410956523323       -1.17827938226636        0.08803037594716
N            1.56885271573014       -1.92634658480649        0.09579606374520
C            0.47493117882741       -1.12314213810166        0.07142739061039
C            0.97314083870836        0.19752156473648        0.04741444250079
C            0.16873985220818        1.34861496263529       -0.01204816738947
O            0.52034845011032        2.53296276601152       -0.02591498036885
N           -1.20751266133286        0.98987169483147       -0.06408341048234
C           -2.17301229333790        2.06650169769440       -0.15228435578099
C           -1.73722139407360       -0.25862794886676       -0.02995762683245
O           -2.93708935022809       -0.44800390527577       -0.10733306194199
N           -0.90302270836534       -1.38237579648822        0.10436857479999
C           -1.71191772934178       -2.64335612500648       -0.01100135517043
H            3.94152086934100        1.21885185439894        0.97827836662143
H            3.90189860041884        1.30150992024060       -0.79292048579034
H            2.69030774590783        2.18800347905478        0.15896488906548
H            3.72368536069620       -1.54126985586131        0.17185134214678
H           -1.61689904304495        3.00124533564405       -0.15248758211091
H           -2.75675708025319        1.96497488359827       -1.06678885612029
H           -2.84758726846814        2.01891728285672        0.70196710548661
H           -0.98248947641155       -3.46607652476563       -0.02655113572760
H           -2.28757651190732       -2.57000943936130       -0.90268203063777
H           -2.86862609476534       -2.79648989732204        0.46492626715393
H            1.60255932070307       -2.93161370371308        0.10243590618487
25
 energy: 27.485605110234 xtb: 6.6.1 (8d0f1dd)
C            3.27727283653250        1.27069135983187        0.10796688591346
N            2.37468866896096        0.15464468156292        0.07783981620240
C            2.72362098464051       -1.17872523899449        0.08682657564689
N            1.56826124187157       -1.92657958036583        0.09648316803684
C            0.47453650073296       -1.12322149079878        0.07195962266789
C            0.97270279052353        0.19773516412593        0.04723607946326
C            0.16894957331390        1.34855773010800       -0.01203435464013
O            0.52033406489056        2.53322403975227       -0.02603107668836
N           -1.20791203115555        0.99004556325669       -0.06402929941531
C           -2.17317556303788        2.06680349881911       -0.15231509968819
C           -1.73758731323007       -0.25838150952197       -0.03059113812257
O           -2.93751605713716       -0.44740780014592       -0.10775248083443
N           -0.90353710849873       -1.38198522513579        0.10280875525027
C           -1.71300637845312       -2.64245814072828       -0.01123754481486
H            3.94324061573342        1.21735773062613        0.97666907067713
H            3.89974283177798        1.30338249917884       -0.79404736490101
H            2.69000312803031        2.18747968201173        0.16179673100514
H            3.72298194480245       -1.54181328851827        0.17403224419332
H           -1.61679759084659        3.00138931176925       -0.15272125703307
H           -2.75691326003204        1.96504978626184       -1.06681174136919
H           -2.84766609097808        2.01931722568636        0.70198260115856
H           -0.98276028230458       -3.46649040057550       -0.02600679241285
H           -2.28736193933983       -2.57271894129411       -0.90428573543204
H           -2.86247745070118       -2.79506116066012        0.46726114317953
H            1.60259055184024       -2.93180689407996        0.10203508810458
25
 energy: 27.210076168119 xtb: 6.6.1 (8d0f1dd)
C            3.27740276364629        1.27075758625825        0.10819457888315
N            2.37499021080781        0.15443565824881        0.07823053919329
C            2.72352093017290       -1.17934477402507        0.08617188708388
N            1.56743377193437       -1.92706266774308        0.09643284306654
C            0.47436487837446       -1.12287873031621        0.07237502472567
C            0.97243822983294        0.19811369434372        0.04681143691095
C            0.16868966850888        1.34831390580254       -0.01226366421412
O            0.52054902935911        2.53336995123271       -0.02625095209978
N           -1.20852888347525        0.99027040684391       -0.06415704721215
C           -2.17344358861222        2.06729456072631       -0.15242197769844
C           -1.73810078975505       -0.25799082192674       -0.03077479074655
O           -2.93802118912805       -0.44747927230260       -0.10724091331583
N           -0.90346369600992       -1.38130484409935        0.10163203779176
C           -1.71248097875402       -2.64183428033178       -0.01128147391559
H            3.94474812249553        1.21634194777005        0.97501223668213
H            3.89759495292526        1.30516957402639       -0.79460882663099
H            2.68985667061682        2.18674188490718        0.16418877391073
H            3.72238074043031       -1.54323235338822        0.17569625028201
H           -1.61662979078815        3.00160702749900       -0.15292259775517
H           -2.75713993176469        1.96546415831677       -1.06693660208975
H           -2.84787160520723        2.01985383014261        0.70188927731997
H           -0.98119176203510       -3.46589007100687       -0.02690532431077
H           -2.28601306249748       -2.57428911685003       -0.90471558507739
H           -2.85967386588570       -2.79513430579028        0.46867014503004
H            1.60080384274424       -2.93226434616612        0.10220862033364
