25
 energy: -42.442240599004 xtb: 6.6.1 (8d0f1dd)
C            3.29144333322686        1.27741858471723        0.11585275722809
N            2.39752753483448        0.14755966346019        0.08150851783116
C            2.72866875571369       -1.14781396012216        0.10000790984943
N            1.61227493846955       -1.90917956251491        0.08461528473639
C            0.50096623444750       -1.08872054952108        0.05384662818916
C            1.01386152260286        0.23739951793106        0.04911836194921
C            0.18257958459858        1.37445006496435       -0.01698602575538
O            0.53659829912190        2.55762853617583       -0.02114073744045
N           -1.17537339787505        1.00984600396828       -0.06775985890456
C           -2.16364224738616        2.07093176870517       -0.14409560796421
C           -1.70015605106096       -0.24556528399290       -0.05122280535568
O           -2.89296377238571       -0.43429559768557       -0.10493371860506
N           -0.81571346122322       -1.37563673981281       -0.00737977991518
C           -1.46601985311813       -2.58088114890414       -0.11091473883272
H            3.93767184068160        1.23006570713098        0.99509022403001
H            3.92185170474538        1.29388417326012       -0.77739734359361
H            2.68948417688793        2.18760175032092        0.15362825731014
H            3.73342050731515       -1.52138685752939        0.15274095945934
H           -1.61716532472552        3.00915474562049       -0.14750312287475
H           -2.75895557835748        1.97225503555272       -1.04904266926489
H           -2.83873181121869        2.01257772822678        0.70848284812952
H           -0.82790673013408       -3.45431248305874       -0.22862527518811
H           -2.47678808033008       -2.48701005805702       -0.54250888017979
H           -3.84123909795168       -3.25321747158814        0.36391420395782
H            1.61278680074090       -2.91836057854861        0.10235640806779
