72
 energy: -99.305253136575 gnorm: 0.004815052133 xtb: 6.6.1 (8d0f1dd)
N           -1.83381985886551        3.02732181920302        2.12110155146303
C           -2.18140734795091        2.13447899435941        1.36847139314203
C           -3.19575373905249        1.90618129914188        0.34943304754164
C           -3.65656280085236        0.45569072355410        0.39056406741047
C           -4.58910774513633       -0.01393870781848       -0.53388157098899
C           -5.04864687611454       -1.31894426307597       -0.48709059195005
O           -5.95722265232697       -1.85597488231624       -1.32894232539549
C           -6.55001034470000       -1.04177494087623       -2.31205815511183
C           -4.55609359076555       -2.19980311262477        0.51256880677834
O           -5.06760865452253       -3.44680311025302        0.48627722740628
C           -4.67279774871462       -4.36805116363462        1.47566793411249
C           -3.61901985087562       -1.72739675474046        1.41700109581673
C           -3.17825414070140       -0.41362245668717        1.35512123837914
C           -2.55237849085578        2.22534478920916       -1.02663814179804
C           -1.54907844539196        1.17974623498147       -1.51174412683665
C           -0.23721669130496        1.22070149947543       -0.73615613192774
N            0.65179067598079        0.11427662309049       -1.16910648994995
C            2.05463501200628        0.30383075124942       -0.66619829871940
C            3.05135941381910       -0.52375596853415       -1.47595290809517
C            4.45297430122879       -0.28928227172142       -0.97257712585277
C            5.10121508912706        0.90620713821615       -1.23279954888321
C            6.38081989154367        1.13835716348214       -0.75128231407555
C            7.04053223923827        0.17324164181277       -0.00553551829912
O            8.27903858407219        0.29096546470070        0.51301261804593
C            8.99789687487325        1.48464884405940        0.30626907686043
C            6.38991270208203       -1.06341816104133        0.25084891257333
O            7.10956827339579       -1.95505762063518        0.96301509550499
C            6.57339042351748       -3.23424282043053        1.20360647538568
C            5.10560395249245       -1.26781713161978       -0.22817796964899
C            0.04320123817348       -1.16493447260709       -0.82906022741236
C           -4.44054072980772        2.83535050888343        0.59735185325539
C           -5.08545112270491        2.52600833320679        1.94479756043583
C           -4.11535936501084        4.32043056597557        0.50005351014370
H           -4.96570246465076        0.64979680222587       -1.29471028956159
H           -7.08136839531440       -0.19510207914298       -1.86603212751082
H           -7.26366125005228       -1.68062002375208       -2.82863316304969
H           -5.81019353334658       -0.67401194571581       -3.03063009228469
H           -4.91801129212464       -4.00776437107982        2.47943252125503
H           -5.23698765149585       -5.27588497034910        1.27118686299723
H           -3.60187105966078       -4.58584611954924        1.41622024525932
H           -3.22858208156285       -2.37411257107765        2.18536457396641
H           -2.45946745742245       -0.06158544083990        2.08223000326776
H           -3.35670927929614        2.29394834838949       -1.75836490745327
H           -2.06308509361965        3.19884485992025       -0.97537929193552
H           -1.97201185858603        0.17675961702480       -1.41667459944432
H           -1.34453306437553        1.36725286007029       -2.56891921399370
H           -0.44126182600020        1.09864845267400        0.33268006932484
H            0.26746247558187        2.17748282044972       -0.89378437782894
H            2.08094991046230        0.00664806633862        0.38424267819102
H            2.32078490614296        1.36095783389417       -0.73672452101939
H            2.99099852534038       -0.23054665908915       -2.52805763949157
H            2.80443928293311       -1.58302481007848       -1.39736185229727
H            4.61955753653683        1.66878936533612       -1.82655463861950
H            6.86038133944500        2.07783554778685       -0.97172945397405
H            8.47639592296167        2.34607715931263        0.73498145766134
H            9.18429646646951        1.66197869976444       -0.75726937387941
H            9.94717534200912        1.34592407569312        0.82005702957846
H            7.34403676168036       -3.77588697450304        1.74855650080469
H            5.66731350834869       -3.18261874852688        1.81583220883327
H            6.35448738138041       -3.75940487766150        0.26863777366267
H            4.60149441241418       -2.20176747576803       -0.03616073659740
H            0.69858638682702        0.14150613960204       -2.18922055264658
H           -0.01573297886325       -1.33084616453179        0.23557249790220
H            0.42796548259999       -1.99229604887309       -1.39938558709603
H           -5.15686347754924        2.58537411557953       -0.19102367982727
H           -4.42763810604605        2.81463262264570        2.76045043253293
H           -5.31275436981645        1.46673314791646        2.03688389302817
H           -6.01270962477449        3.08415567584138        2.04387550511348
H           -3.34215806085116        4.59365553576365        1.21345731599774
H           -3.79303417347366        4.60151190921005       -0.49868129486651
H           -5.00738764150236        4.89533980365286        0.73532195080775
H           -1.07369377964842        3.00364078796137        2.78361869648172
