72
 energy: -99.406346391141 gnorm: 0.008767692655 xtb: 6.6.1 (8d0f1dd)
N           -1.89171779919562        2.79767337459807        2.23459115802364
C           -1.83723493024736        2.11684765165509        1.18937647098183
C           -2.98419307958526        1.90774384883480        0.23958935689235
C           -3.45703815516898        0.46375610246798        0.32073680096734
C           -4.41241662627552        0.00033679220167       -0.58587772622149
C           -4.89328495509157       -1.29701402756288       -0.53381967652432
O           -5.82741605409840       -1.81352381504895       -1.35831457204289
C           -6.45818130488369       -0.97256112488859       -2.29554476172076
C           -4.39097565722250       -2.18987669307636        0.45131415610052
O           -4.90670942412677       -3.43501956906785        0.42353287383132
C           -4.51679498198034       -4.36049878557151        1.41112335767319
C           -3.43923491270638       -1.72560475924229        1.34488066771238
C           -2.98274038446963       -0.41432712346516        1.28264653138811
C           -2.42715401895164        2.20082843511302       -1.17780017437723
C           -1.48741322434054        1.11208280041778       -1.72805637995626
C           -0.15504002593841        1.10003250665089       -1.08423765543034
N            0.49842356965896        0.01746010377692       -0.67959945075855
C            1.87657405379813        0.11099028899772       -0.25899209368788
C            2.84482915937511       -0.34026086204824       -1.36927214694435
C            4.26472775755863       -0.13694408610134       -0.92060974462593
C            4.90408363983801        1.07358672869511       -1.13292045918955
C            6.20425896960354        1.27579521505707       -0.69690413220505
C            6.89097185964050        0.26936879491728       -0.03302138830405
O            8.15193393142692        0.35234583911672        0.42943110476580
C            8.88293858956121        1.53938910461084        0.22374779928567
C            6.24074997446311       -0.97519849561817        0.19492245377713
O            6.97917392014895       -1.89695752988932        0.84416421781368
C            6.43271651251158       -3.17097465568672        1.08799443035108
C            4.93992234955096       -1.15323662886510       -0.24904487663651
C           -0.09828739364546       -1.29612263055192       -0.71238013019774
C           -4.19445057467302        2.84338498204930        0.53336669573158
C           -4.82691196441744        2.53622844492911        1.89089588227234
C           -3.85495305075177        4.32663910397143        0.44243261493067
H           -4.79740011590250        0.67128015745150       -1.33545119237285
H           -6.95969330677773       -0.13244637894036       -1.80554484768676
H           -7.20025261611756       -1.59399420429735       -2.79265254225648
H           -5.74928999349660       -0.59414240395278       -3.03916675384140
H           -4.75457212605514       -3.99875852373537        2.41583078641885
H           -5.08962283332926       -5.26310780109969        1.20787441350405
H           -3.44791911840579       -4.58868146244869        1.34781490281314
H           -3.05121904983492       -2.37555532968222        2.11238083639470
H           -2.26772123437434       -0.08183242268513        2.01944567103445
H           -3.26350641387180        2.30368289953511       -1.86805994234618
H           -1.89827426470850        3.15448584309214       -1.15703054893358
H           -1.97570638598059        0.14116765933029       -1.66349462279154
H           -1.33339143993340        1.33893448637037       -2.79114279349731
H           -0.91449129894453        1.62528820760004        0.82385667494593
H            0.39620242146067        2.02900393483576       -1.06766166218155
H            2.02477122042657       -0.51062000352539        0.62810332239488
H            2.10405173975581        1.14518318547172        0.00779301652276
H            2.64960224150357        0.25122462795113       -2.26543977520399
H            2.66976896431799       -1.39092568877903       -1.60332574332301
H            4.39496134561401        1.86947208346208       -1.65501798017011
H            6.67810745047718        2.22521584633135       -0.88443862134195
H            8.41111253528217        2.39194497932175        0.72168840681142
H            9.00071371457480        1.75721724388720       -0.84194910401224
H            9.86107533287999        1.35993528725472        0.66567016369214
H            7.21513577203724       -3.73229806600438        1.59488228839210
H            5.55253907816018       -3.11280727846539        1.73649028418892
H            6.16875585345773       -3.67973219677459        0.15565554637962
H            4.44063088440599       -2.09595785148798       -0.08850802040736
H           -0.25230348048781       -1.63540681786923       -1.73891809640228
H           -1.06163435848217       -1.29032923257255       -0.19604805447268
H            0.55948108911905       -2.00044241645979       -0.20961877994472
H           -4.94399509269033        2.63400127398649       -0.23656371389397
H           -4.11765000802013        2.74458911830038        2.68580419679043
H           -5.12986582103088        1.49145011214131        1.96164991257110
H           -5.70561628564127        3.15852673383575        2.03627791062409
H           -2.99917128121584        4.55255351183546        1.07149984220748
H           -3.63898142196801        4.60696262440260       -0.57929604473865
H           -4.69095045561150        4.93098875420791        0.78089042661991
H           -1.04632141295772        2.89169969929889        2.78863387643751
