72
 energy: 75.900677325420 xtb: 6.6.1 (8d0f1dd)
N           -1.74347921122181        3.65923444129999        1.34431002342085
C           -2.02932990313651        2.61300973071966        0.70365980343205
C           -3.40272121825788        2.43153091926082        0.11522067687647
C           -3.75145824224618        0.96420608853926        0.21686436855960
C           -4.71962262452968        0.40621758423537       -0.61269757179639
C           -5.00901122964409       -0.94341884224179       -0.57019854495513
O           -5.93476278232023       -1.57570823526312       -1.34581066655189
C           -6.69522763310129       -0.80171756306669       -2.23627891006643
C           -4.29790843981973       -1.77685565610794        0.31951827749590
O           -4.64274667736379       -3.10149889090818        0.29033702354504
C           -4.05538207402497       -3.97088791622289        1.22452953762187
C           -3.35389834527912       -1.21856981303460        1.15904078280046
C           -3.10010136096008        0.14443204744120        1.11791640757060
C           -3.08998244846800        2.84520527393715       -1.37889909496932
C           -2.21972816689319        1.88361271521004       -2.02590706894929
C            0.59280534480805        0.94464783045115        0.16721565315965
N            1.11537736847944       -0.22461643156671        0.20815070967600
C            2.52408802451190       -0.47968083358752        0.47192877165957
C            3.30541282346862       -0.67435048383132       -0.83651723583076
C            4.77022482705508       -0.64519593210858       -0.54605846744821
C            5.47988810279553        0.52559994647613       -0.71394469793354
C            6.83792348993715        0.56668025256753       -0.45139174611408
C            7.49837535693622       -0.56340699513282       -0.00913708349398
O            8.82249459045090       -0.63717562925583        0.28944302901494
C            9.61274702985562        0.51379024467199        0.12715697923926
C            6.77392821753958       -1.76583486201937        0.14915811184682
O            7.50368053664606       -2.82909552037370        0.57290473801702
C            6.85803789981236       -4.06150140485752        0.75344559995414
C            5.42454029390781       -1.79485025949441       -0.12897768920529
C            0.32745626237258       -1.40246110030850       -0.10795444512348
C           -4.65359815293872        3.24917500118154        0.52037049546027
C           -5.15683079743310        2.91166012703587        1.92101025456947
C           -4.49849992502601        4.75980941856779        0.38356582875116
H           -5.24907880355889        1.04415824060187       -1.30043129753146
H           -7.27672986039268       -0.03530453499353       -1.71231872044354
H           -7.37143052624172       -1.50671807734833       -2.71737141563850
H           -6.07209616793693       -0.32010797357969       -2.99823731266896
H           -4.24430078248950       -3.65491450876539        2.25660005846279
H           -4.51455372925341       -4.94513687904017        1.05902258600469
H           -2.97674329142143       -4.05425300761387        1.06607849963479
H           -2.80494149614016       -1.83394555854786        1.85697164354357
H           -2.37696628889413        0.56654064649702        1.79584888112618
H           -4.04722400793447        2.90387084086846       -1.92152081588672
H           -2.62148768849781        3.83026317277685       -1.33596586278757
H           -2.66417625961820        1.00045265174600       -2.45034225589527
H           -1.18799731612574        2.06976650916932       -2.14345617821068
H           -1.21953051891235        1.80702710694528        0.35965889415546
H            1.27701965612165        1.76149927136013        0.43863788385950
H            2.60669380801454       -1.36034740063849        1.10958730875521
H            2.91042500358955        0.39469114897822        1.00028497059123
H            3.08444801021680        0.11422424549574       -1.56023953763677
H            3.02765882318022       -1.63176890628478       -1.27739181001220
H            4.99295306295282        1.42210797880951       -1.07232241800845
H            7.36886869924473        1.49212765041886       -0.59609566838901
H            9.28331638052324        1.33464946553117        0.77332789621042
H            9.62024228497552        0.85344042807145       -0.91398033755875
H           10.62002987614434        0.21399436530259        0.41427481847124
H            7.63711147134871       -4.74010723513201        1.09819074523001
H            6.06537353868784       -4.01078785042534        1.50674975701213
H            6.44340043690504       -4.43738102262036       -0.18819577071826
H            4.86982414855581       -2.71447209825253       -0.03408153133629
H            0.56386263583623       -1.78925227381175       -1.10673730244761
H           -0.71728822345616       -1.13456698719711       -0.08357532498560
H            0.51798222782898       -2.17134160280469        0.63999737091294
H           -5.44124157258623        2.92474137495405       -0.18191534813059
H           -4.44606103055027        3.25182797186336        2.66752348406342
H           -5.30529153548131        1.84002171224589        2.03629989817997
H           -6.11051538614302        3.40692828678883        2.09844211493297
H           -3.68873458273374        5.11464313268640        1.01458294461039
H           -4.30187132382642        5.05873574937434       -0.64322377352657
H           -5.43112103569806        5.22867813920934        0.69675341515543
H           -0.83324072623351        3.70440094789605        1.79855145012035
