72
 energy: 75.999906154548 xtb: 6.6.1 (8d0f1dd)
N           -1.77769695572455        3.41289684721887        1.84618911641415
C           -1.93485199494040        2.48703200918377        1.01301190423944
C           -3.16376683185023        2.30317487958150        0.19775081265537
C           -3.58456244432005        0.84969462156190        0.27046983886269
C           -4.55801374592930        0.35308090303820       -0.59434991426160
C           -4.95190956120258       -0.97059099934502       -0.55289867506931
O           -5.89655852220006       -1.54142205643682       -1.35635457071190
C           -6.58548816521132       -0.72216068911773       -2.26324560145799
C           -4.34023781203076       -1.84531612649597        0.36993326912854
O           -4.77500138791494       -3.14317396096276        0.33555582311595
C           -4.28795614663310       -4.03393550235505        1.30547811228116
C           -3.39075129570326       -1.34515923083076        1.23972354617194
C           -3.03177664527266       -0.00796570880518        1.20023457762141
C           -2.70414532721340        2.66251459140573       -1.24069680853507
C           -1.68467489880540        1.69192516415042       -1.70383384714184
C            0.11355581097226        1.00839138869291       -0.11882372787300
N            0.81757082284208       -0.10714035888869       -0.04837125567527
C            2.26240728345032       -0.27770970730631        0.23868046963467
C            3.14766285421983       -0.61535565242563       -1.00888194315499
C            4.61099466306508       -0.56378731178274       -0.67440272024975
C            5.33060017566161        0.60142505448540       -0.86016455720504
C            6.66968053137498        0.67411755068459       -0.51605881699790
C            7.31390786512788       -0.42670078471031        0.01883859127644
O            8.62197070578402       -0.46554832709979        0.40549522752108
C            9.40947135557892        0.68020938498044        0.20635862917704
C            6.58869777258202       -1.62535874587654        0.19762733360881
O            7.29789972472503       -2.65889373247402        0.73545749318035
C            6.65008011341618       -3.89110110267817        0.91460020351444
C            5.25482430514731       -1.67962456506766       -0.15936266401726
C            0.15709306480546       -1.37421620654172       -0.30298548662319
C           -4.37277198648439        3.18169732866992        0.53273972087332
C           -4.91398767177667        2.85576928800276        1.91773499076652
C           -4.07619321755994        4.67389469368351        0.43582444951443
H           -5.01572745076787        1.01812485258936       -1.31076759967235
H           -7.11868138473432        0.08746150914711       -1.75230131280648
H           -7.30625092124645       -1.37457431369525       -2.75778412887206
H           -5.91448299099300       -0.29216772543817       -3.01344368542855
H           -4.49050948979439       -3.68341806167453        2.32437269906474
H           -4.80991101510330       -4.97748212166696        1.14322066199215
H           -3.21336599609191       -4.19614495220818        1.18811178302527
H           -2.90632748216702       -1.98640712005614        1.95934262069546
H           -2.30063395288275        0.35856037633752        1.90170293682481
H           -3.60611329308585        2.65782965642881       -1.92045536023260
H           -2.24731919684303        3.64844352714025       -1.23075506783212
H           -2.15716655609133        0.81093182601162       -2.08807932687993
H           -0.89957120554507        2.04081005384079       -2.34139580645332
H           -1.08847073948281        1.63588563572499        0.59987335474108
H            0.77559762374392        1.87392510752496       -0.01950025561226
H            2.35135521894984       -1.10324928872011        0.95880058866889
H            2.63080067362573        0.64171497625923        0.69018682659161
H            2.97409213371908        0.10183564496667       -1.81131332347816
H            2.90072672890026       -1.61223639815939       -1.38382715586490
H            4.85463499603708        1.47623760035112       -1.27470597140403
H            7.19737219438916        1.60245554841763       -0.66267604442371
H            9.03982803446450        1.52758551429210        0.79022897041729
H            9.45769054083425        0.96296553029494       -0.85143521594019
H           10.41064849962432        0.42034718083415        0.55162025234649
H            7.40278015581534       -4.56352018458390        1.32578084780163
H            5.81723435864844       -3.81344040045422        1.61869703172866
H            6.28377937996586       -4.29890116668606       -0.03435583571059
H            4.69247931406060       -2.59131347678940       -0.03811653820183
H            0.26140670032579       -1.75451444373159       -1.32820972858473
H           -0.88655044304611       -1.21870759319090       -0.13253427985023
H            0.53901658048416       -2.13580849532078        0.36907785787237
H           -5.14025120014349        2.93125255888299       -0.21119543808405
H           -4.17397399992189        3.11419765887299        2.66442030948158
H           -5.15025833608586        1.79739960444314        2.00703560208553
H           -5.81186687479758        3.43906517659076        2.10775016489491
H           -3.26722176893126        4.92737038303980        1.10995314650881
H           -3.81030285316850        4.96668926116455       -0.57623427081066
H           -4.96353174752821        5.23142828374626        0.72686797125495
H           -0.86782481199659        3.45645575042739        2.29869452907565
