72
 energy: 18.091620687634 xtb: 6.6.1 (8d0f1dd)
N           -1.71086420757556        3.20220386621264        2.11904945276881
C           -1.83581062971330        2.38681707236992        1.17122052681444
C           -2.98602747044120        2.20685691166628        0.24578823954873
C           -3.46226096334420        0.76339818379668        0.30360571710368
C           -4.44005302979180        0.31008837555128       -0.58332504041571
C           -4.90633814053558       -0.99035544500480       -0.54072399045320
O           -5.85980755101113       -1.51668131569775       -1.36194183119706
C           -6.49996870258358       -0.66960494859360       -2.27921737345708
C           -4.37228508673726       -1.88810084944751        0.40689770898194
O           -4.87398829816475       -3.15799751746270        0.36756947465679
C           -4.45850486335732       -4.06597171130521        1.35432163779405
C           -3.41307445757644       -1.43341086244185        1.29045828359562
C           -2.97102967283730       -0.12065605877960        1.24373417644803
C           -2.42020273986971        2.50488349349553       -1.15646554346215
C           -1.31260067266388        1.47725673346784       -1.52659820098870
C           -0.01911100786641        1.14966467100764       -0.52288126109681
N            0.69764203235129       -0.08087102095207       -0.30738806010988
C            2.11618717699326       -0.17270266150600        0.02985490701002
C            3.05373771834017       -0.58684549989343       -1.15134297461380
C            4.49931365933896       -0.50711997581049       -0.76467699152718
C            5.21908569113555        0.65804506405722       -0.95371044728507
C            6.54228268058802        0.75247276593856       -0.55531261181222
C            7.17254973920243       -0.32541859794671        0.04031311578333
O            8.46844073223763       -0.34505280582506        0.46917406019386
C            9.25672624789275        0.79753482811420        0.25902357576867
C            6.44709549371935       -1.52080634710154        0.23754283079570
O            7.14401599942508       -2.53239650527347        0.83305020216438
C            6.49983941654656       -3.76491852054959        1.02371752678355
C            5.12704464207450       -1.59390477402445       -0.16748302316235
C            0.05214082231562       -1.35520490140690       -0.46059527992543
C           -4.15795893159507        3.13860599041456        0.55242839380604
C           -4.72964995422832        2.81998867135559        1.92807899704140
C           -3.77051582212373        4.61156256560424        0.48602062847132
H           -4.84995685284289        0.98998051710203       -1.31518136265318
H           -6.99736694186482        0.16700745816261       -1.77643861485224
H           -7.24744461768654       -1.28637129104374       -2.77970908697019
H           -5.80086373303768       -0.27763416421008       -3.02410107772552
H           -4.66891804292576       -3.69627558352838        2.36432785030830
H           -5.02754564069820       -4.97913206934186        1.18101054217564
H           -3.39131605844281       -4.28738059503011        1.26734882277281
H           -2.98130716569164       -2.09332510026899        2.02502101381983
H           -2.22899175139977        0.20538777084348        1.95349994138350
H           -3.28024159299068        2.51526452683200       -1.89460126480326
H           -1.96222439184620        3.48919588619686       -1.16832950500817
H           -1.91018673905134        0.59713149561032       -1.77032438414247
H           -0.98517706717979        1.78166635009392       -2.54366500410436
H           -1.03925652924281        1.74832737958736        0.79187537098215
H            0.74647150930214        1.93956985541422       -0.49620054565459
H            2.25355295165426       -0.91163784564580        0.82767213494313
H            2.45882538992311        0.78631233938630        0.41904635870547
H            2.88204690360171        0.08633620675811       -1.98756829666935
H            2.80875484290648       -1.60412461275667       -1.46452571034316
H            4.75208773091430        1.51345612391043       -1.41406080346886
H            7.07137202263775        1.67836503243941       -0.71444579818312
H            8.86183257509870        1.65995208313328        0.80295560802400
H            9.33950529289113        1.04657837056887       -0.80520143181506
H           10.24680562393551        0.55598815575372        0.64595379275088
H            7.24140630467725       -4.42208648197660        1.47719452506609
H            5.64458156095909       -3.67166088129456        1.69864449095007
H            6.16537717010415       -4.20089606217512        0.07536367366893
H            4.56191530187108       -2.50147197411135       -0.02744457987419
H            0.03269836936040       -1.72814196228433       -1.49432471048474
H           -0.95680170014516       -1.25224752709040       -0.11008393853141
H            0.54817301393894       -2.11253241268872        0.14288161880491
H           -4.92271956432096        2.94726726439099       -0.20557450820758
H           -3.98049041465449        3.01934620513406        2.68264600056131
H           -5.02634648157064        1.77607520479136        1.99459531666067
H           -5.59277790860022        3.44933063637138        2.12486778841750
H           -2.96744749124315        4.80566294523190        1.18499425981427
H           -3.46007097575831        4.89900756679106       -0.51450719934164
H           -4.62686768427279        5.22126897298952        0.76332899661094
H           -0.78452421885487        3.15826631700133        2.54097585363042
