72
 energy: 83.780962658695 xtb: 6.6.1 (8d0f1dd)
N           -1.77264456457941        3.54678650036060        1.64566955731286
C           -1.97038920936265        2.55958092231878        0.88426544824200
C           -3.26929538810936        2.36027462524290        0.16292701496068
C           -3.65576902848114        0.89928988196455        0.24770690911804
C           -4.62513579056932        0.37500534846248       -0.60450268140735
C           -4.97531706075774       -0.95954958422717       -0.56160841130479
O           -5.91378624169327       -1.55417984618895       -1.35063959252268
C           -6.63351913530009       -0.75411725813350       -2.25130963942680
C           -4.32074418300884       -1.81563049683773        0.34918660306660
O           -4.71974821280552       -3.12434095831840        0.32253476951517
C           -4.18644991360464       -4.00857493893127        1.27374499243317
C           -3.37089505414969       -1.29126621044650        1.20417032773277
C           -3.05660695460307        0.05820563146115        1.16355181245416
C           -2.87704408633469        2.75121095522480       -1.29929957980621
C           -1.92572035152824        1.80225380155668       -1.85591088543575
C            0.32064554324254        0.95519763093573        0.06039931597963
N            0.94863448874220       -0.16317639486950        0.07441789783165
C            2.37646190742659       -0.36737019270370        0.35176958504729
C            3.20932987933189       -0.63770209908489       -0.92536934287633
C            4.67526172454317       -0.59680981431755       -0.61206286545307
C            5.39194900473876        0.56943866780649       -0.79518745240055
C            6.74122017059839        0.62827486538105       -0.48999737443988
C            7.39394697695570       -0.48593363117329        0.00431866062890
O            8.70916883980241       -0.53750339947679        0.36180502182375
C            9.49717711705702        0.60994127450823        0.17300274716411
C            6.66884909924060       -1.68640283461386        0.17403657671827
O            7.38725761346321       -2.73221014575649        0.66952479899695
C            6.73961884078958       -3.96439743530148        0.84589907986333
C            5.32630371743418       -1.72981452687722       -0.14573912674865
C            0.22864199719991       -1.38489151836275       -0.21482368422596
C           -4.49567124820184        3.20919676755833        0.52494305052016
C           -5.02115834022759        2.87820683271054        1.91528000149206
C           -4.25703717506438        4.71037136052554        0.40902983659916
H           -5.11395538415620        1.02799126105307       -1.30901887669263
H           -7.18769943231449        0.03805403904511       -1.73612207894752
H           -7.33661640637566       -1.42909844412224       -2.73883484069270
H           -5.98219532342479       -0.30372977685119       -3.00778470514086
H           -4.38232716430087       -3.67445775264437        2.29912782812877
H           -4.68099094138493       -4.96650643669788        1.11116617562125
H           -3.10935320072763       -4.13698918792900        1.13607144257494
H           -2.86329863037739       -1.91943403733239        1.91974270356007
H           -2.33244545541181        0.45158111094325        1.85749655189001
H           -3.80183578882496        2.76557533267932       -1.92337156117245
H           -2.41076671400701        3.73166083535631       -1.27346284182833
H           -2.36090779358425        0.89847180007381       -2.23739431809424
H           -0.99837529354945        2.14558545026939       -2.27572178288048
H           -1.09754898666982        1.71012409873412        0.40935010733673
H            0.96297447074877        1.82349230001840        0.22504891045271
H            2.44793908794766       -1.22720958473656        1.02872989201510
H            2.74248008240126        0.53507831226814        0.84390101824051
H            3.02656743592288        0.10921342247767       -1.70118222222676
H            2.95174987557025       -1.61775882489173       -1.33249316556708
H            4.91105214997159        1.45376693017519       -1.18577794218885
H            7.26924069445071        1.55645961542165       -0.63370258905353
H            9.14512418793516        1.44820127810821        0.78135418602211
H            9.52594637572937        0.91490295043671       -0.87896029349371
H           10.50229685735997        0.33472519834432        0.49304989364941
H            7.50211801020342       -4.64186110728224        1.22912445055071
H            5.92192830651611       -3.89863112586478        1.56962681664585
H            6.35334294494912       -4.35634709213997       -0.10145601778886
H            4.76766247629596       -2.64568889470601       -0.03702833099167
H            0.39762462758679       -1.77551618046294       -1.22827340183979
H           -0.81724425726175       -1.18094679863511       -0.12016595672715
H            0.52618218071897       -2.13770199674769        0.50419908401186
H           -5.27047709520769        2.92607580688712       -0.20269990442061
H           -4.29360023993556        3.16967659008509        2.66409523575282
H           -5.22202646360482        1.81298827000923        2.01526809062819
H           -5.94205298858428        3.42869218791894        2.09570771250503
H           -3.44708577959268        5.00690772412615        1.06669536638713
H           -4.01921988064117        5.00563954971571       -0.60972694602451
H           -5.16465956174236        5.23156538638931        0.70609310161874
H           -0.87091719598712        3.60944227525042        2.11777575072527
