72
 energy: -4.710487393766 xtb: 6.6.1 (8d0f1dd)
N           -1.56485173891793        2.92050949834194        2.21299354242733
C           -1.64426297896877        2.20701721542723        1.18026004205050
C           -2.81722139972307        2.10492204563608        0.25105287517794
C           -3.36236691034780        0.68560825645938        0.32078773347424
C           -4.34740891271302        0.26858062632992       -0.57675879292384
C           -4.86730730124729       -1.01062309486148       -0.53310465925094
O           -5.83129653495873       -1.49897138228186       -1.36401880434701
C           -6.42983535621100       -0.63000177272609       -2.28991175800552
C           -4.39128866489017       -1.92430482362292        0.43195075778775
O           -4.95488219551796       -3.16549203902394        0.39417863471509
C           -4.59655165278796       -4.08873260459534        1.38933819891096
C           -3.42171846351181       -1.50775924229672        1.32322706950073
C           -2.91583829213044       -0.21571723598458        1.26899264046857
C           -2.25810954397548        2.36749700208501       -1.16823833460440
C           -1.24310735083778        1.29666310833251       -1.63713896379299
C            0.02518065845539        1.17056702568169       -0.79722362156594
N            0.65257138554940       -0.05360232665279       -0.49416775893062
C            2.03834035858059       -0.08565206939046       -0.10739585798850
C            2.97561764579472       -0.55949350108992       -1.24509468770146
C            4.40803732588328       -0.45936505235353       -0.82473647801304
C            5.12606235702477        0.70572989053438       -1.01998915096043
C            6.43909633777331        0.81309924350527       -0.58645223093789
C            7.05639719143308       -0.24655755558645        0.05437723017502
O            8.34009744200011       -0.25369236159510        0.51420769510890
C            9.13231983119007        0.88552212245470        0.30044992496905
C            6.32993812727310       -1.43929192105154        0.26726655212446
O            7.01639620030585       -2.43129378697582        0.90403043022621
C            6.37736027862826       -3.66415057725178        1.11020287030745
C            5.02055204345495       -1.52531785344131       -0.16804153721741
C           -0.01933025230784       -1.32162831763439       -0.57326982882901
C           -3.96250707942666        3.09455404139080        0.57329097643800
C           -4.57262992740790        2.79038222287596        1.93840048422553
C           -3.51922734008851        4.55327565157015        0.53037565813510
H           -4.72141682312979        0.96088740657636       -1.31468475652009
H           -6.89821072634122        0.22700358392340       -1.79423964617478
H           -7.19766425580050       -1.21898415953272       -2.79117191828352
H           -5.71087623623736       -0.27069618662346       -3.03326250060540
H           -4.81300846679723       -3.70736742680001        2.39335264887724
H           -5.20404715350725       -4.97280909696832        1.20132238618702
H           -3.53793269538600       -4.36000769405648        1.32665775799093
H           -3.04046489863300       -2.18057386865386        2.07389761903641
H           -2.16778296423442        0.08121827178159        1.98703166691151
H           -3.10378969415449        2.43521198370331       -1.87257949853856
H           -1.75190695585403        3.32885349419065       -1.17911640864609
H           -1.78779006840706        0.35582079328707       -1.67936971504551
H           -1.02313681938052        1.50860951606209       -2.69810028200198
H           -0.79625812801117        1.63424879253765        0.76957342914769
H            0.76749626337102        1.95936059236044       -0.86914111160753
H            2.16975885075081       -0.74523485194749        0.75696175857756
H            2.34706576927947        0.91306892897088        0.20294375753033
H            2.79908049730751        0.07340868279505       -2.11239996136627
H            2.72416959108506       -1.58895514939545       -1.50268297764561
H            4.66576434103753        1.54671665082039       -1.51442188575347
H            6.97312721188553        1.73342121380340       -0.76228959546450
H            8.72089789059854        1.76104465528771        0.81174360991038
H            9.24669040026852        1.10846104860759       -0.76646094854609
H           10.10805619325894        0.64977088770314        0.72345974691663
H            7.11583758891477       -4.30048689230598        1.59630766797630
H            5.50542590984660       -3.56159990519972        1.76392549959208
H            6.06900103656620       -4.12681287737630        0.16569411992424
H            4.45567818400362       -2.43152718798860       -0.01345111155575
H           -0.14356944179010       -1.66564472520965       -1.60625128590698
H           -0.99880252363271       -1.25648532146098       -0.10497996775157
H            0.55965936503652       -2.07634088104676       -0.04211422523762
H           -4.73454214705479        2.95508247397699       -0.19094364209802
H           -3.82675546197426        2.94127766077583        2.70951967676258
H           -4.92630755720444        1.76350463689244        1.98465943225356
H           -5.41062419637379        3.45691587728913        2.12706940286969
H           -2.72092719672563        4.70989949318223        1.24510507192916
H           -3.18022374200194        4.83712777375898       -0.46171133569881
H           -4.35570762557307        5.19650366297563        0.79687443271718
H           -0.66632435751000        2.89680207716956        2.68860677184585
