72
 energy: 55.023230539884 xtb: 6.6.1 (8d0f1dd)
N           -1.78349112976426        3.36526030558140        1.97177991970338
C           -1.91446307937357        2.47293743455646        1.09266104697339
C           -3.09755972201328        2.26952417461244        0.21951661245956
C           -3.53511950898460        0.81661168064860        0.28529694005784
C           -4.50990753200910        0.33691711033395       -0.58959536932738
C           -4.93391098738748       -0.97787316503936       -0.54793464494032
O           -5.88197276714205       -1.53092212268127       -1.35910266125679
C           -6.55188909577497       -0.70076494498919       -2.27015326347077
C           -4.35363118271615       -1.86236739620176        0.38502603942598
O           -4.81462160584154       -3.14969946120059        0.34855450950359
C           -4.35584707398926       -4.04749389104700        1.32574837422133
C           -3.40041743869204       -1.38023638505800        1.26063176443841
C           -3.00797579815925       -0.05238948326292        1.21938779354232
C           -2.57619002053319        2.59629893182599       -1.19736804940075
C           -1.49087402730113        1.59891182998145       -1.59020537135137
C            0.01171070685407        1.07229477428247       -0.27308707932083
N            0.75610844914547       -0.09593349771872       -0.15406546287254
C            2.19564186229961       -0.23054234968750        0.14897632576227
C            3.11040625905698       -0.60291260700676       -1.06803250689240
C            4.56574899760598       -0.54015660171796       -0.71037946292626
C            5.28610532173917        0.62485191460393       -0.89734215742133
C            6.61866419442414        0.70627667562384       -0.53104637502133
C            7.25754944622293       -0.38570016193380        0.02819886432745
O            8.56138049105657       -0.41669054921720        0.43174781345037
C            9.34865336730004        0.72780077928531        0.22730305308226
C            6.53218964694110       -1.58288104026177        0.21417877331514
O            7.23650098624740       -2.60849134089073        0.77514620355545
C            6.58948332426842       -3.84064360236065        0.95761683031098
C            5.20374813526049       -1.64463677825045       -0.16270951672834
C            0.11487354950461       -1.37232269448866       -0.36826536522735
C           -4.29122375063863        3.16564928500117        0.53840078370301
C           -4.84123030783858        2.84189495871495        1.92096464365540
C           -3.95548910267074        4.65022059776378        0.45444914921279
H           -4.94929732809808        1.00800068815644       -1.31236533280853
H           -7.07120025572832        0.11984088387891       -1.76274226400153
H           -7.28327949569238       -1.33932328500934       -2.76729697551366
H           -5.86932467982640       -0.28580441662594       -3.01808220134964
H           -4.56164185354233       -3.68892021076928        2.34098708671976
H           -4.89634434632701       -4.97974826589102        1.16008851449335
H           -3.28380705268712       -4.23265194720162        1.22038382558887
H           -2.93700899646733       -2.02915073934940        1.98636476563125
H           -2.27302350357245        0.29695402832704        1.92504625318012
H           -3.45968737735654        2.59055165184229       -1.91383328801212
H           -2.13040802271541        3.58779121204280       -1.20186894244849
H           -2.03918151992952        0.73892708592270       -1.94577823497906
H           -0.91670524654916        1.93530378821338       -2.43962711392232
H           -1.12110591630048        1.71905260149856        0.67776525701601
H            0.72683749695222        1.90580400403341       -0.22123780120429
H            2.31296343203529       -1.02230239704689        0.90308952169404
H            2.55333391874074        0.70016648304871        0.58403724760741
H            2.93728823535858        0.09656331592815       -1.88381589366708
H            2.86458799202476       -1.60907305608385       -1.41743256398154
H            4.81378286508059        1.49207265845404       -1.33026324153942
H            7.14665049162656        1.63390088973707       -0.68210628574087
H            8.96870930963027        1.58099256398389        0.79564022433536
H            9.40969107024764        0.99713071847942       -0.83344170462175
H           10.34622277208682        0.47609357443660        0.58846344918606
H            7.33690769861472       -4.50859676098674        1.38536001956777
H            5.74766436384699       -3.75638150365061        1.65000405844986
H            6.23537648736274       -4.25867441692797        0.00836127143951
H            4.64004298114110       -2.55448960498099       -0.03395303861169
H            0.17495302840202       -1.75551209532916       -1.39809971994163
H           -0.91938114070240       -1.24132337028021       -0.13442648516939
H            0.54217150171135       -2.13133971608010        0.28177162086184
H           -5.05655546036196        2.93776540102209       -0.21117054830446
H           -4.09616018198152        3.07686386601542        2.66981237511748
H           -5.10082344296682        1.78868814263003        2.00207801670386
H           -5.72449659575118        3.44436655955921        2.11504898403735
H           -3.14871077568558        4.87855953278263        1.13927146718634
H           -3.67050289712415        4.94084767512774       -0.55281784785527
H           -4.82997732960033        5.22911361294942        0.74035397851657
H           -0.85696351870089        3.34917670717728        2.40510322254561
