72
 energy: 28.141598212009 xtb: 6.6.1 (8d0f1dd)
N           -1.74092419675836        3.25561270444321        2.08013472034691
C           -1.86445920453860        2.42370232376647        1.14572163183015
C           -3.02539304761243        2.22876100974264        0.23890336187464
C           -3.48688533598560        0.78143927619868        0.29852303795366
C           -4.46327077595551        0.31924108640121       -0.58511173922338
C           -4.91542591364953       -0.98622964653312       -0.54331690340668
O           -5.86692059875697       -1.52147177819802       -1.36148412801830
C           -6.51730170099562       -0.67998429869879       -2.27647570667367
C           -4.36595948309383       -1.87969101037774        0.39954311885843
O           -4.85408260131786       -3.15544645282300        0.36115208782402
C           -4.42437112579377       -4.05984476734223        1.34523446260281
C           -3.40870056366415       -1.41575603503612        1.28055593512692
C           -2.98327987828541       -0.09770167969577        1.23626119084867
C           -2.46699692043359        2.53412406093184       -1.16464387803600
C           -1.35372792686446        1.51374943991493       -1.53324744915150
C           -0.02350826009695        1.12354528995998       -0.45957430707417
N            0.71416793107636       -0.09252520909794       -0.25777742441697
C            2.13898226756579       -0.19374288660833        0.06842706684856
C            3.07260362329476       -0.59213547684188       -1.12426869493629
C            4.52121592771617       -0.51768926256633       -0.74677359269398
C            5.24169910248377        0.64722973105182       -0.93537714085446
C            6.56794669023515        0.73742845612026       -0.54720847561341
C            7.20121940430214       -0.34526843652096        0.03639450109400
O            8.50005754381709       -0.36865046718720        0.45691195969140
C            9.28776255744168        0.77461219262024        0.24835861260737
C            6.47577011316896       -1.54119234998475        0.22975753929844
O            7.17500509486814       -2.55782314625777        0.81422670162754
C            6.52926706282037       -3.79002893414585        1.00146043108631
C            5.15292197126916       -1.61045044533213       -0.16640883834395
C            0.07248835432887       -1.36480543850258       -0.43051441970199
C           -4.20449790153044        3.14792129696462        0.54769867669995
C           -4.76765809227688        2.82722147311428        1.92615492617871
C           -3.83242124167996        4.62455337230402        0.47544755247138
H           -4.88301879246288        0.99614537103079       -1.31427636102181
H           -7.02200909752951        0.15135364853764       -1.77208681548430
H           -7.25956462718782       -1.30406920576439       -2.77571025996468
H           -5.82373305183172       -0.28034354050900       -3.02249053734223
H           -4.63336118075273       -3.69319553178330        2.35673435868368
H           -4.98410711655474       -4.97955277607728        1.17521287861526
H           -3.35543393009397       -4.26919138112712        1.25229898348310
H           -2.96614949270765       -2.07216952896089        2.01196581094773
H           -2.24305038217311        0.23647666560390        1.94398779367245
H           -3.33323830669653        2.53355423429147       -1.90072516308967
H           -2.01855569102079        3.52376618407161       -1.17519159240752
H           -1.94754039221859        0.64833861009693       -1.82436872718258
H           -0.97119433735698        1.84407332638691       -2.51295239235214
H           -1.06297275478570        1.78741937552677        0.72239106183040
H            0.72895813081669        1.92760207229904       -0.40962112412571
H            2.27323227599957       -0.95048537167948        0.85123742059990
H            2.48782592334396        0.75639893774381        0.47399389517952
H            2.90058745101757        0.09013304563691       -1.95345046231122
H            2.82783268788921       -1.60587673679032       -1.44959252916841
H            4.77288449404414        1.50672916726578       -1.38630850185089
H            7.09643764485466        1.66423817682341       -0.70277987270387
H            8.89761688216269        1.63383612321504        0.80051188845284
H            9.36299205377399        1.03035083594396       -0.81488025250912
H           10.28076366661293        0.53039576171759        0.62642064218186
H            7.27203491920302       -4.45178867795414        1.44641461844824
H            5.67833783750690       -3.69936492928743        1.68197325152301
H            6.18813280028558       -4.21950136856607        0.05248123504641
H            4.58806516958103       -2.51865271523459       -0.03020458326085
H            0.07994068117753       -1.74015926872790       -1.46368052522351
H           -0.94434927113008       -1.25025148508876       -0.11649948439259
H            0.54608429948856       -2.12082096189376        0.19077387178539
H           -4.96901509124338        2.94464520630314       -0.20787516574492
H           -4.01887564115259        3.03826693737379        2.67800796389093
H           -5.05165312579201        1.77994310421568        1.99756611212974
H           -5.63717291547652        3.44782587207836        2.12337278067167
H           -3.02782187942304        4.82876774179697        1.16984621701929
H           -3.53007049723345        4.91295955457409       -0.52735522848895
H           -4.69405833240850        5.22509891871784        0.75586019504259
H           -0.81028428205442        3.22498714175547        2.49738000524635
