72
 energy: -1.220974137034 xtb: 6.6.1 (8d0f1dd)
N           -1.60089081764006        2.99938895832049        2.19206865904774
C           -1.69548646687044        2.24819867141108        1.18814641157203
C           -2.85772790434117        2.13066386856279        0.25217947180897
C           -3.38688693129148        0.70516192808201        0.31688257139080
C           -4.37026506291331        0.27936184007406       -0.57815538491247
C           -4.87717750500496       -1.00528944566574       -0.53483873066197
O           -5.83830968884532       -1.50352155775836       -1.36356013049178
C           -6.44738250780990       -0.64000708660792       -2.28734543809092
C           -4.38720073265065       -1.91520655594655        0.42597582047239
O           -4.93481760831048       -3.16412184552134        0.38701848016111
C           -4.56227506265246       -4.08318993554124        1.38058595304983
C           -3.42030284230623       -1.48943305560910        1.31567107070710
C           -2.93021688491850       -0.19222924144566        1.26361450946342
C           -2.29329060568162        2.40665671556108       -1.15974402578053
C           -1.24408906792746        1.35353052189886       -1.60496768875537
C            0.01991708030236        1.17890589561595       -0.72705707461458
N            0.66264733287157       -0.05805736112284       -0.44912443658728
C            2.05755650961376       -0.10894809602135       -0.07544710972356
C            2.99575879131613       -0.56698070879834       -1.22380442402341
C            4.43157972112579       -0.47153704530782       -0.81160395136536
C            5.15011475209897        0.69362086067370       -1.00488529405387
C            6.46529134979242        0.79813225010972       -0.57847153778600
C            7.08588821209884       -0.26605088869552        0.05163709893023
O            8.37256421196152       -0.27607976871345        0.50455690908169
C            9.16385473750125        0.86369716208852        0.29043734005291
C            6.35972092092863       -1.45942073036320        0.26026760971205
O            7.04851168268856       -2.45639961014656        0.88765219186986
C            6.40790395066102       -3.68923831606093        1.08871087129217
C            5.04774806605391       -1.54221545456584       -0.16849082227049
C           -0.00238644735044       -1.32965900890124       -0.54472753249182
C           -4.01130327840985        3.10524437771849        0.56826517442934
C           -4.61210975040733        2.79785141690202        1.93591588367174
C           -3.58212647251406        4.56749242769929        0.51984575299055
H           -4.75336463010828        0.96858743629710       -1.31470264218381
H           -6.92305555116924        0.21190369826412       -1.78974671641459
H           -7.21024392848564       -1.23580974165750       -2.78870806273965
H           -5.73318740926117       -0.27228856268351       -3.03081616843596
H           -4.77730957349085       -3.70424713405987        2.38594466148766
H           -5.16005381593962       -4.97492637530262        1.19662620094788
H           -3.50124210776475       -4.34173739830448        1.31209948621694
H           -3.02579112627198       -2.15957704031254        2.06169394697184
H           -2.18276745104410        0.11136146689540        1.97891028191813
H           -3.14208732198185        2.45746204031412       -1.87511042081502
H           -1.80318095559297        3.37567584718831       -1.16930664325357
H           -1.80158525881564        0.42399822205953       -1.69900658142588
H           -1.02059997764747        1.58789060185936       -2.66508997673900
H           -0.86645702761041        1.62987313402707        0.82362625976857
H            0.77905973613051        1.95668388632912       -0.77321989785418
H            2.19333040086341       -0.78812126781435        0.77224829309089
H            2.37536514325317        0.87997129746641        0.25662398184563
H            2.82031127797158        0.07674302265231       -2.08258124730944
H            2.74620452911412       -1.59366812773922       -1.49516225184992
H            4.68788926181383        1.53850485594432       -1.48999895481515
H            6.99785457050961        1.72018453484810       -0.74955295203978
H            8.75629624727195        1.73599900186413        0.80958351051436
H            9.27003188000936        1.09274745430903       -0.77613343605546
H           10.14354473188094        0.62712273599928        0.70428086787285
H            7.14657921373523       -4.33154980211335        1.56682655707926
H            5.53978887341178       -3.58875529691786        1.74721643221274
H            6.09309176367632       -4.14473559752886        0.14276960518828
H            4.48267464702524       -2.44864567713829       -0.01743993660675
H           -0.10117472417881       -1.68356300860252       -1.57833039062304
H           -0.98795284459517       -1.25864779826622       -0.09950248350751
H            0.55808603972592       -2.08586362702845        0.00384105924671
H           -4.78153927677517        2.95323156964370       -0.19479411689140
H           -3.86447819418081        2.96091252967062        2.70204431015810
H           -4.95179141657614        1.76653051671774        1.98741304476720
H           -5.45618985910930        3.45551302287503        2.12686160717159
H           -2.78221229049678        4.73046970545654        1.23045611385143
H           -3.25032661515551        4.85144629459337       -0.47450427922248
H           -4.42299383846116        5.20338290789216        0.78947556812814
H           -0.69691998635065        2.96188770328337        2.65555350883532
