72
 energy: 67.094620074641 xtb: 6.6.1 (8d0f1dd)
N           -1.78202756613599        3.37520165435796        1.91202562156972
C           -1.92116853755271        2.47971183966636        1.04651637492333
C           -3.12991439293141        2.28591278779455        0.20631232963641
C           -3.55960309418965        0.83315700135998        0.27738741410721
C           -4.53413949124827        0.34510291087835       -0.59198745751164
C           -4.94317859122672       -0.97416208873177       -0.55031691739028
O           -5.88941758024808       -1.53618505394413       -1.35773015184976
C           -6.56865310295618       -0.71130824633430       -2.26674066593296
C           -4.34718191979336       -1.85369206238864        0.37757101226383
O           -4.79470956294011       -3.14668098705838        0.34205468208535
C           -4.32187863319553       -4.04096844043449        1.31571758051083
C           -3.39573593535357       -1.36264919220164        1.25016605245479
C           -3.02019587608309       -0.03003912227212        1.20985238753792
C           -2.64303076224226        2.62924664668487       -1.22217323740642
C           -1.59127235102595        1.64746710924711       -1.64838287153333
C            0.05813839795013        1.03015028874168       -0.18143818758510
N            0.78508832129587       -0.09959872363806       -0.09815651351679
C            2.22881046148926       -0.25468837608510        0.19432162757910
C            3.12906551771668       -0.60965668098577       -1.03809158392355
C            4.58829407049742       -0.55182094675825       -0.69185273350783
C            5.30819320621684        0.61327028171412       -0.87836491064031
C            6.64400782951319        0.69033584103472       -0.52319155413873
C            7.28562513878792       -0.40608588578683        0.02391709840545
O            8.59162839893336       -0.44097015620814        0.41877005863611
C            9.37894447126781        0.70415504198913        0.21670601465010
C            6.56036171454696       -1.60397736522914        0.20643412481170
O            7.26715067327116       -2.63366875591400        0.75557641949777
C            6.61983924314001       -3.86595226323652        0.93600974659922
C            5.22915391138181       -1.66197967101438       -0.16045711102584
C            0.13623420661878       -1.37416240488551       -0.33365385253794
C           -4.33116262424686        3.17362967429771        0.53575105590219
C           -4.87694936023303        2.84859124511315        1.91937299023433
C           -4.01562869746318        4.66229048611064        0.44501305021614
H           -4.98263099055075        1.01302723835891       -1.31175024183794
H           -7.09471518619686        0.10389477851009       -1.75743310334912
H           -7.29485800903710       -1.35664024381911       -2.76272179512064
H           -5.89167252395550       -0.28877959919224       -3.01561742992244
H           -4.52594907376608       -3.68629355136328        2.33278912047933
H           -4.85309557279014       -4.97904905622584        1.15204716910439
H           -3.24850527794235       -4.21469483111858        1.20436270628158
H           -2.92143555823871       -2.00769786597405        1.97266091593531
H           -2.28746861229096        0.32746717126899        1.91386221428044
H           -3.53638642348854        2.62548709930982       -1.92025932595970
H           -2.18950464462792        3.61726866116718       -1.21888478799721
H           -2.09696585102172        0.77707886300664       -2.02304360024172
H           -0.90714668494743        1.99319077076145       -2.39910373609468
H           -1.10725719959983        1.66870706419903        0.66210447678522
H            0.74142702716821        1.88250163917751       -0.12143170882723
H            2.32828048767521       -1.06246350758642        0.93318221206927
H            2.59366907327548        0.67092156197090        0.63595068890705
H            2.95437918013019        0.09949650791744       -1.84642139823878
H            2.88261009081468       -1.61100181720468       -1.40065679243392
H            4.83411807450797        1.48426373217748       -1.30227950994738
H            7.17185085815049        1.61825951133458       -0.67227288832785
H            9.00416118465466        1.55438430631744        0.79294076358924
H            9.43316733019972        0.98022155536335       -0.84262179342993
H           10.37850009568674        0.44853248817949        0.56965804419042
H            7.36991153150843       -4.53636836659271        1.35519374984447
H            5.78258536444551       -3.78516462346936        1.63437535180654
H            6.25944264108787       -4.27853715603483       -0.01319899062909
H            4.66594702244660       -2.57257518197674       -0.03523104780428
H            0.21793718322211       -1.75289997415391       -1.36236772843432
H           -0.90380409824313       -1.23067005888356       -0.13348654759836
H            0.54167702591007       -2.13818478256191        0.32451461933221
H           -5.09811677814812        2.93470980874653       -0.21070327659256
H           -4.13439819176021        3.09532476050657        2.66711851978592
H           -5.12467254997897        1.79269386091160        2.00454734718681
H           -5.76770534710126        3.44126449064886        2.11195029089019
H           -3.20780290252265        4.90337934442140        1.12451626805480
H           -3.74016248001831        4.95401004236676       -0.56467395886826
H           -4.89653603517780        5.23089717175470        0.73323670978264
H           -0.86323560217497        3.39761038987035        2.35186206887094
