72
 energy: 94.430727647109 xtb: 6.6.1 (8d0f1dd)
N           -1.78021184902625        3.52072239258813        1.71836517299680
C           -2.00064121991841        2.54669770402425        0.96220762736251
C           -3.23490910942516        2.33778245875812        0.17551043618321
C           -3.63233544683854        0.88041507124886        0.25449210224073
C           -4.60372765379726        0.36683305873463       -0.60126208652550
C           -4.96827209615602       -0.96478875056785       -0.56026662127036
O           -5.91089319479073       -1.55204814913033       -1.35338772418413
C           -6.61867095034073       -0.74395540731775       -2.25589791251588
C           -4.32613477625830       -1.82676535628092        0.35436813104581
O           -4.73899576134228       -3.13097933088015        0.32777082752393
C           -4.22042450745038       -4.01809109948025        1.28448047193508
C           -3.37607698692460       -1.31100958684354        1.21450362575217
C           -3.04727301463873        0.03433618536538        1.17443575320657
C           -2.81521520859265        2.71911513737503       -1.27918976345860
C           -1.83089748052790        1.76922138348922       -1.80983749318056
C            0.21039381164918        1.01886674920479        0.00067329227553
N            0.87921612774798       -0.13910463790085        0.04844757057965
C            2.31739474446304       -0.32629544924783        0.31921463893013
C            3.18071393001654       -0.62626976008597       -0.94874075845631
C            4.64945181342507       -0.58393363684535       -0.62895980055633
C            5.37158067146403        0.57962124406130       -0.81711320488675
C            6.71753751345179        0.64320400621701       -0.49868961528570
C            7.36806731489037       -0.46632531915470        0.01016122000408
O            8.68149795816643       -0.51318022243423        0.37772513436137
C            9.46885990403825        0.63364188227710        0.18416976365624
C            6.64285452788829       -1.66558706096374        0.18221907237342
O            7.35831818249236       -2.70797288128680        0.69388475671526
C            6.71026985808216       -3.94032328810382        0.86875411469281
C            5.30259239034687       -1.71172667163313       -0.15178610487430
C            0.19967092308548       -1.37677267764614       -0.24220146235896
C           -4.45925535393530        3.19991689245352        0.52437938421100
C           -4.98601034714688        2.87029998710130        1.91461754916606
C           -4.19900264816557        4.69793977778128        0.41660076451275
H           -5.08188553702036        1.02527706931171       -1.30863586916307
H           -7.16571124210796        0.05453337559116       -1.74183634552646
H           -7.32785719097714       -1.41091564936217       -2.74659342015351
H           -5.96000696872480       -0.29978203177392       -3.00929769463204
H           -4.41830402216554       -3.67759810535085        2.30764410242646
H           -4.72305240393946       -4.97252972167303        1.12334474567955
H           -3.14398422587741       -4.15691145267043        1.15326113513508
H           -2.87824591863672       -1.94191800777753        1.93378604327536
H           -2.32269285791591        0.42060377113166        1.87317406815834
H           -3.73763815648618        2.73143146161220       -1.92009706186084
H           -2.35526746084091        3.70229208175381       -1.25881854951570
H           -2.28121153177068        0.87486969919113       -2.19625610176553
H           -0.94452245418100        2.14251038665685       -2.29597247542488
H           -0.91545805488617        1.51203914558873        0.37521522651637
H            0.88330689427070        1.85316575076577        0.13859924569538
H            2.40700442209046       -1.18374742272757        1.00389297505082
H            2.70091872143776        0.57532014666306        0.79570323808364
H            3.00726529422882        0.10752896757598       -1.73727884642472
H            2.93019293252975       -1.61306983797006       -1.34567288630105
H            4.89287357581388        1.46121562385019       -1.21514360691007
H            7.24551522442011        1.57185254745129       -0.64251481199314
H            9.11013916498067        1.47457200717131        0.78442999461823
H            9.50280035566899        0.93105897897723       -0.87019183837312
H           10.47399354417679        0.36573300624005        0.51208619727286
H            7.46829775109227       -4.61806426806684        1.26136375486042
H            5.88716229169897       -3.87030203163298        1.58533062593668
H            6.33022428863381       -4.33614378028230       -0.07984581439876
H            4.74309194681399       -2.62609663118037       -0.03744215451492
H            0.35257141560253       -1.76590420683089       -1.26186667603261
H           -0.84608219070110       -1.19854114876120       -0.12419801630246
H            0.52959211746169       -2.13794053908152        0.45937606623899
H           -5.22935880926557        2.92814155634372       -0.21000537657370
H           -4.25249183227614        3.15212376663187        2.66081768771452
H           -5.19638159824214        1.80683254433881        2.01310912563429
H           -5.89846834801844        3.43208143134318        2.10415141123837
H           -3.38928804826061        4.97758252053428        1.08120701410304
H           -3.94961514792230        4.99250836461247       -0.59943188373149
H           -5.09780210132617        5.23536105533005        0.71249607563283
H           -0.88163229530176        3.57050792343573        2.19255168047125
