72
 energy: 78.606079810267 xtb: 6.6.1 (8d0f1dd)
N           -1.74718465867922        3.60182124392033        1.35328394054901
C           -2.01438476138427        2.57794663186562        0.66885890893959
C           -3.42658887480159        2.43874981617757        0.10272695044343
C           -3.77685866592321        0.97604336904726        0.20696108822168
C           -4.74451816317021        0.41147975064304       -0.61603863143627
C           -5.01693636529664       -0.94208715627100       -0.57539604454524
O           -5.94081767712676       -1.58235904892220       -1.34708849063861
C           -6.71111215336347       -0.81389198885733       -2.23324619859956
C           -4.29131757462643       -1.77053912975618        0.30815715331816
O           -4.62315076951567       -3.09904369748426        0.28011191003778
C           -4.02269934736657       -3.96036123941140        1.21263581896274
C           -3.35102293124071       -1.20304583794429        1.14697614473825
C           -3.11482738657541        0.16211224948669        1.10567396008126
C           -3.14100476555563        2.86499731450868       -1.39709591195156
C           -2.28307673442295        1.90954039420143       -2.07284215975587
C            0.60535323984936        0.91695077621595        0.23708894521457
N            1.14341127452359       -0.24823734935772        0.25315008269221
C            2.55495817231373       -0.51063557162985        0.49905384621888
C            3.32498244438708       -0.69050059026870       -0.81968559060256
C            4.79406648511255       -0.65960045287944       -0.54560332267966
C            5.50160764336018        0.51462472341798       -0.69751397982626
C            6.86141445223868        0.55224489926457       -0.44206261277508
C            7.52416418253849       -0.58201838147260       -0.01406262604508
O            8.85004858015448       -0.66064346191191        0.27126178885860
C            9.64150155095411        0.49065015686897        0.11581329575763
C            6.79991010769829       -1.78465562289966        0.14042565856564
O            7.53193496970858       -2.85135031806224        0.54959667928139
C            6.88725886024643       -4.08430916471410        0.72997341201731
C            5.44877970811586       -1.81054246767923       -0.12887990952327
C            0.35378459931650       -1.41570740809297       -0.08664146172417
C           -4.68788945258087        3.25573907605210        0.52123311322011
C           -5.19208378208774        2.91969332235014        1.92238126956718
C           -4.55700024211067        4.77013087709000        0.37748175614723
H           -5.28134483196717        1.04718327118675       -1.30032588412423
H           -7.29773574331674       -0.05398401594068       -1.70578080720759
H           -7.38250263450043       -1.52447309657797       -2.71312425777452
H           -6.09468737677656       -0.32473306030607       -2.99600584482735
H           -4.21063875044667       -3.64681302500116        2.24563105516958
H           -4.47257531290263       -4.93851787314835        1.04681714402410
H           -2.94334778777878       -4.03214338375290        1.05113085163796
H           -2.79195491037994       -1.81193178309405        1.84304477077682
H           -2.39209698202148        0.59319068656123        1.77795824489888
H           -4.10697303481724        2.94504870367814       -1.91719721942743
H           -2.67173126408341        3.85093744627815       -1.35097106085733
H           -2.71221970100336        1.01053938235286       -2.47451954477110
H           -1.23548687565363        2.05394485641299       -2.08208725844408
H           -1.16673882198534        1.74873233102275        0.34254938830920
H            1.33099966503484        1.71913798531840        0.48266860124066
H            2.64450889472783       -1.39692624564353        1.12441435961782
H            2.95510585552488        0.35603764177733        1.03103325980778
H            3.08449820980667        0.10966377762997       -1.52436261944727
H            3.04835100658621       -1.64242695557643       -1.27339318251135
H            5.01292352018786        1.41438616067403       -1.04523220341823
H            7.39292652064802        1.47779597539249       -0.58476537242393
H            9.31633447679343        1.30547257084885        0.77195391111917
H            9.64514595580682        0.84023910616011       -0.92197882561368
H           10.64907127822189        0.18469256842176        0.39460142838654
H            7.67056968428391       -4.76243070423816        1.06516320589457
H            6.10172915645479       -4.03609503799069        1.49084814035043
H            6.46509522185759       -4.45789195048551       -0.20941279604976
H            4.89540596753483       -2.73132994697636       -0.03505363152462
H            0.61074258089992       -1.79299612920489       -1.07947200246574
H           -0.69179957790853       -1.13976261800122       -0.07653625745798
H            0.52192842610536       -2.20822048249728        0.64438087500991
H           -5.47932329510814        2.92348390990583       -0.17484224951236
H           -4.48630434691197        3.27157874788384        2.66765418516979
H           -5.32991759838362        1.84697540975704        2.04175851829601
H           -6.15294704268196        3.40475035842300        2.09647437931438
H           -3.74867258217459        5.14035346006726        1.00154604271957
H           -4.37144707042111        5.06929489779815       -0.65129879775685
H           -5.49549757811750        5.22867052351870        0.69311973687259
H           -0.81814217292549        3.69143847113216        1.75860971453478
