72
 energy: 76.771736764278 xtb: 6.6.1 (8d0f1dd)
N           -1.75052651692795        3.62448504513536        1.32436172228239
C           -2.05259174931744        2.60389067149738        0.65821424491232
C           -3.46276460166655        2.46420957970161        0.06807545974326
C           -3.80508535004664        0.99851724156174        0.17650274675173
C           -4.77903498812466        0.41850929438042       -0.63058730069210
C           -5.02879606549942       -0.93932481937240       -0.58285951982772
O           -5.94552744083064       -1.59195340091320       -1.35126436354730
C           -6.74062905878182       -0.83803675283104       -2.22595981216055
C           -4.29403628849745       -1.75709840842200        0.30211548104982
O           -4.59756210073447       -3.08778714995232        0.27159766100708
C           -3.95941933200242       -3.93629829328029        1.18959486083066
C           -3.34858429105562       -1.17315560991128        1.12535357820669
C           -3.12182314225642        0.19381514795083        1.07121107034710
C           -3.20538863540278        2.88582458580980       -1.45079479125393
C           -2.31445224062762        1.96006176481278       -2.15482954524611
C            0.64944002588664        0.91649209737831        0.22174881429071
N            1.18830870840809       -0.25326816994857        0.26190157454663
C            2.60333711965564       -0.54391749826460        0.50211543006874
C            3.36401303246847       -0.72057712433996       -0.82135293584523
C            4.84335102365814       -0.68762102537689       -0.56691830892826
C            5.55200643695672        0.49000511793353       -0.69181649435038
C            6.91329001187262        0.52672278787494       -0.43137864635134
C            7.58057146370953       -0.61550055818903       -0.02825097546302
O            8.91042947864230       -0.70127352472365        0.24822659648702
C            9.70361270700324        0.44641364042777        0.09520636247874
C            6.85663298178145       -1.81921999775898        0.11983393624550
O            7.59144738107133       -2.89151722255993        0.52091475055252
C            6.95075714052186       -4.12897445777681        0.68657937370599
C            5.50255299747799       -1.83791185234338       -0.14420132181009
C            0.38882158225475       -1.41787013721392       -0.07478625282301
C           -4.75175234040883        3.27065455528457        0.53516009641997
C           -5.23641619917984        2.93012682555619        1.94877605584553
C           -4.67473956819377        4.79031994604193        0.37990154133552
H           -5.33611119545565        1.04043588946491       -1.31264824368833
H           -7.34082244008063       -0.09228599659124       -1.69246947061411
H           -7.40083110207644       -1.55869464367921       -2.70561556022180
H           -6.14133984321838       -0.33361007125912       -2.99218869654057
H           -4.14333530857728       -3.62606894239950        2.22363464223909
H           -4.39014794238179       -4.92212878222126        1.02589521146533
H           -2.87828692369209       -3.98827004078844        1.01942594592295
H           -2.76837995101396       -1.76909185188224        1.81596329548211
H           -2.39165914273628        0.62860919220274        1.73505166318107
H           -4.17434665318175        2.92810588243205       -1.95853585992998
H           -2.77394096375842        3.88735638743356       -1.41400297594620
H           -2.71667024075199        1.01043755578001       -2.46100037052189
H           -1.25380625588332        2.05846578252924       -2.07698421061182
H           -1.24950067497140        1.77536298522147        0.33057164239434
H            1.36128609332182        1.70190022119172        0.55027328159578
H            2.69877585705001       -1.44816187962904        1.10819345437908
H            3.04804225587227        0.29145737953643        1.05057385166353
H            3.08987949177419        0.09627619119797       -1.49236110457136
H            3.08283849897455       -1.66595625512711       -1.28692487379608
H            5.05392258849226        1.39330095211371       -1.00962529044064
H            7.44540497667007        1.45515789629342       -0.56018547260883
H            9.38834425933358        1.25231804873377        0.76760599255984
H            9.69527285607015        0.81163868926845       -0.93757203717167
H           10.71607221042288        0.13630829787765        0.35376177809051
H            7.73889846117737       -4.81292080919240        1.00070646456853
H            6.17742921645955       -4.09112000755395        1.46047439639325
H            6.51597253444624       -4.49316361217812       -0.25116466392436
H            4.95248359699067       -2.75952861744066       -0.04499796189659
H            0.65503747478999       -1.78610251357638       -1.06723071729205
H           -0.66565896071465       -1.14200279887959       -0.05808827381904
H            0.55825045159146       -2.22548423987867        0.63931787877895
H           -5.55561112239040        2.93662727350135       -0.14262628690136
H           -4.53325500280425        3.29773809001130        2.68868193504561
H           -5.35925273762203        1.85648119750217        2.07292209165676
H           -6.20951944077933        3.39396974535053        2.13481392497429
H           -3.86753835180429        5.18754656278264        0.98430625230551
H           -4.51889787389999        5.08337120135980       -0.65715232061715
H           -5.61051660864633        5.24488792730775        0.71448086983112
H           -0.82986353745941        3.68717990874400        1.75202823135514
