72
 energy: 87.928139819904 xtb: 6.6.1 (8d0f1dd)
N           -1.77825256623213        3.47110350736876        1.78662957406433
C           -1.96709821030188        2.52518020907825        0.98792068490652
C           -3.19664936892382        2.32148160286696        0.18667274848330
C           -3.60745429385424        0.86658555199543        0.26334277977954
C           -4.58068229379281        0.36140954992046       -0.59681779579230
C           -4.95951792165028       -0.96703242643503       -0.55654094135258
O           -5.90333249611704       -1.54625104613074       -1.35483500737960
C           -6.60218053071757       -0.73320040269342       -2.25988958010261
C           -4.33210633852918       -1.83647347365750        0.36163820653279
O           -4.75651780603141       -3.13714337863608        0.33149588760394
C           -4.25393332540035       -4.02594304782575        1.29523973836788
C           -3.38323143138352       -1.32789884909648        1.22742594664357
C           -3.04128078722863        0.01422337400374        1.18962801004167
C           -2.75937418664547        2.69154636098683       -1.26015814653237
C           -1.75566446357741        1.73149667299789       -1.75599298347601
C            0.14723932728027        1.01700155770363       -0.05342954193712
N            0.84217763022917       -0.12272665675476        0.00472905232201
C            2.28446360336532       -0.30188887676921        0.28151956761062
C            3.16134010361118       -0.62008450108356       -0.97689417208452
C            4.62874402336090       -0.57362630300133       -0.65090230606560
C            5.35077686496538        0.58998702421855       -0.83922385717909
C            6.69334819135979        0.65843393476543       -0.50783869412387
C            7.34085162458426       -0.44652754994379        0.01415372369934
O            8.65154752803837       -0.48925556997759        0.39153223184709
C            9.43902625594730        0.65709682864489        0.19532698029753
C            6.61555195165473       -1.64553106035562        0.18931805715808
O            7.32790083844792       -2.68346136871195        0.71416183318055
C            6.67991863843224       -3.91565122451708        0.89161955943533
C            5.27840852047036       -1.69568878152678       -0.15604661982213
C            0.17769519161921       -1.37719426494137       -0.27213197241917
C           -4.41574526671655        3.19109492741723        0.52811083339981
C           -4.95016401749162        2.86341704374178        1.91538697230839
C           -4.13782595007691        4.68624534902770        0.42595547262024
H           -5.04823401811245        1.02299480893107       -1.30990739838634
H           -7.14249054295959        0.07090296835125       -1.74747261674594
H           -7.31734401187569       -1.39284938875773       -2.75297901332967
H           -5.93726665842958       -0.29573213997594       -3.01137291064376
H           -4.45426760774238       -3.68024004992406        2.31621271806497
H           -4.76614531184019       -4.97507082933472        1.13374007692503
H           -3.17837158634469       -4.17620343022467        1.17097614766987
H           -2.89158636128877       -1.96423448082744        1.94643226809117
H           -2.31091551340302        0.39005989709431        1.88764601340599
H           -3.67217838284316        2.69308681863730       -1.92101839225855
H           -2.30142916087724        3.67666575373138       -1.24417805044902
H           -2.21559614005401        0.84481861351101       -2.14458377120001
H           -0.91776081379314        2.09573166532899       -2.31820558390754
H           -0.98402348276125        1.54627830726244        0.48611306496390
H            0.82201054926081        1.86090385341281        0.06308357605191
H            2.37308483455291       -1.14749831471091        0.97918978068092
H            2.66350712330232        0.60776030690466        0.74596698513994
H            2.99052287546926        0.10450046256371       -1.77377541314763
H            2.91349457004850       -1.61201235395372       -1.36321921620073
H            4.87356188435292        1.46837878422020       -1.24529108523882
H            7.22101045580604        1.58705155562280       -0.65306495191967
H            9.07467052019649        1.50129486489737        0.78729736151368
H            9.48038531192699        0.94715761370950       -0.86075610145855
H           10.44208565453977        0.39321695669172        0.53224173209838
H            7.43514345717865       -4.59064050556377        1.29399829164944
H            5.85181870883140       -3.84134168496394        1.60180290392460
H            6.30683518534744       -4.31778818362760       -0.05704378296939
H            4.71801457532466       -2.60906578624749       -0.03880593099907
H            0.30889048772381       -1.76033834500025       -1.29498249174106
H           -0.86747807425571       -1.21067128738137       -0.13016953511583
H            0.53378316541008       -2.13782686531127        0.41517619817280
H           -5.18428158232051        2.92978362474140       -0.21126328404629
H           -4.21304711100309        3.13402818159856        2.66118282559422
H           -5.17358369859012        1.80249055948240        2.00972543522267
H           -5.85515834674249        3.43632329773091        2.10540999761989
H           -3.32844608192753        4.95324615834717        1.09543092326063
H           -3.88013371341131        4.98028966549527       -0.58796941907482
H           -5.03085012867884        5.23367978107638        0.71962468096951
H           -0.87577066471809        3.52112403640533        2.25211297929078
