  25
        -42.10458825
 C          3.2371761933        1.1303594741        0.0162543380
 N          2.2818631996        0.0550540600        0.0078475960
 C          2.5470685842       -1.2482076786        0.0153904328
 N          1.3909732849       -1.9520377171        0.0192557979
 C          0.3563732654       -1.0650334561        0.0151580960
 C          0.9119258456        0.2085648794        0.0099743031
 C          0.1130681102        1.3966905096       -0.0036872117
 O          0.4929661766        2.5458631452       -0.0299425330
 N         -1.2897469880        1.0808449654        0.0197055247
 C         -2.1489032258        2.1110083595        0.0518615350
 C         -1.8579050313       -0.2239206346        0.0054052201
 O         -3.0471889892       -0.3841838829       -0.0060832615
 N         -0.9717810963       -1.2984681816        0.0069421618
 C         -1.5084183378       -2.6480380779       -0.0015012947
 H          3.7035524670        1.2154837245        0.9991695282
 H          4.0123050762        0.9513572018       -0.7269737421
 H          2.7186112770        2.0622767493       -0.2053268349
 H          3.5265076189       -1.6828697576        0.0150136141
 H         -1.7369945933        3.1020058528        0.0638032500
 H         -4.1031010470        3.4508082468       -1.6966070574
 H         -3.2014638393        1.9039697801        0.0671719288
 H         -1.2174935489       -3.1787307203        0.9051204202
 H         -1.1637499119       -3.1871032546       -0.8834262163
 H         -2.5944490649       -2.5709146251       -0.0337134654
 H          1.3221475112       -2.9595465410        0.0235413216
