72
 energy: 1.337270363020 xtb: 6.6.1 (8d0f1dd)
N           -1.50980852477249        2.82568723393759        2.24534598943210
C           -1.55161762291947        2.18333812789989        1.16800452959393
C           -2.73906886586133        2.08777721333367        0.24621817813591
C           -3.30725484810739        0.67285921370720        0.33098212594269
C           -4.28451443689583        0.23139081873079       -0.55719410790468
C           -4.81967738580114       -1.05866585976369       -0.50389054852713
O           -5.79461259982216       -1.47251128074222       -1.37416209840718
C           -6.37051158997291       -0.57398043924187       -2.29417012281562
C           -4.37261815073326       -2.00778871749933        0.48228170120209
O           -4.92450730869935       -3.29366293399455        0.51213571465082
C           -4.73761021185827       -4.35994760560856        1.48007174551558
C           -3.39939725296825       -1.52703883653664        1.34454082236848
C           -2.88368390555388       -0.23491053248221        1.28291032541893
C           -2.17865711344988        2.33320915161230       -1.18266848518305
C           -1.25702025192565        1.20606164781745       -1.68278972702107
C            0.01494244659864        1.15285215965714       -0.91524887351911
N            0.64004264372746       -0.03705608328493       -0.58061561240054
C            2.00502720071926       -0.03289373728101       -0.17143196617048
C            2.94199661303861       -0.54204732469261       -1.28714716327329
C            4.36451748265768       -0.43490145452869       -0.84377992030633
C            5.08078567702621        0.73000303635203       -1.04524719581038
C            6.39133498038247        0.84166927628294       -0.60408186441849
C            7.00154660691665       -0.21066641872414        0.05480558875906
O            8.28044990791975       -0.21377877843822        0.52725829840582
C            9.07330850876201        0.92579949771836        0.31957519814531
C            6.27351804786339       -1.40050843256330        0.27777493197814
O            6.95578271400869       -2.38381791686047        0.93102263069153
C            6.31719566989149       -3.61383949888150        1.15411662966160
C            4.96907401830323       -1.49389872385157       -0.16684290212539
C           -0.05598466181078       -1.28875976394012       -0.64714683167536
C           -3.86355372015198        3.11069508284779        0.56817054323418
C           -4.50118431904157        2.81532851211252        1.92450042806160
C           -3.38520166408218        4.56273659456435        0.53473151553253
H           -4.63157346336358        0.94023590906138       -1.30120337376487
H           -6.82788186903142        0.29197001189862       -1.80239041973967
H           -7.15186148042071       -1.14367707163227       -2.80061864374575
H           -5.64987037181482       -0.22386322406267       -3.04189536042458
H           -4.98170839737420       -4.05738435263580        2.50513842821603
H           -5.41127157265374       -5.17429622768066        1.19504278208129
H           -3.71098621842942       -4.74309666322426        1.47192062243012
H           -3.03072628423503       -2.19101095031801        2.10875223071704
H           -2.14439413871851        0.06053817502469        2.01020913814554
H           -3.00930536725612        2.43771328722323       -1.88347124795206
H           -1.61905282860192        3.27122513722774       -1.18920048041942
H           -1.79581189331541        0.26106765161986       -1.63532104037360
H           -1.02748369807154        1.40607263918060       -2.74025193009820
H           -0.68433971349124        1.66979607178164        0.69074291162427
H            0.66295805871000        2.00798359838016       -0.96640150552552
H            2.12465121419828       -0.66444690595086        0.71429325807230
H            2.29845325784406        0.98460922817219        0.09773589702213
H            2.77321725284497        0.06449572370035       -2.17881172821842
H            2.68460412409178       -1.57643116456152       -1.51903012917086
H            4.62559942236582        1.55983847277422       -1.56503659723357
H            6.92838687010793        1.75822015180726       -0.78870094276124
H            8.65468658755899        1.80773674556649        0.81639895002572
H            9.20559599575713        1.13946826130884       -0.74677325320315
H           10.04035205165885        0.69060810799708        0.76135943579083
H            7.05527814614469       -4.23697665768335        1.65728980347389
H            5.43828516516707       -3.50478114451146        1.79909152822002
H            6.02018930156261       -4.09397442754117        0.21532475106111
H            4.40294211781105       -2.39894315307295       -0.00940497108144
H           -0.22871956014600       -1.60548952867028       -1.68206168777715
H           -1.02225071400887       -1.22247380779624       -0.13725859610109
H            0.54260662086107       -2.04825534950570       -0.14854012761786
H           -4.63468439414239        2.99186567653296       -0.20304932249107
H           -3.76470752146785        2.94226344298463        2.71110305210735
H           -4.88172490296539        1.79756484785922        1.95869719932998
H           -5.32773595792098        3.50070984526420        2.10022321958892
H           -2.59649457233130        4.72092635509620        1.26440371837038
H           -3.01879734419927        4.84746430657429       -0.44885411409383
H           -4.21659142104241        5.21847488865260        0.78499504483558
H           -0.62151880984046        2.82734747942764        2.74104200873611
