72
 energy: 68.152851336217 xtb: 6.6.1 (8d0f1dd)
N           -1.55123895593549        2.95263834415645        2.25147579223255
C           -1.55919969189923        2.28867602122133        1.19279669304216
C           -2.71958944256295        2.16623575657185        0.24345146504683
C           -3.28156249124653        0.75170149911628        0.32508747354454
C           -4.24573522562901        0.29514035304829       -0.57595465501251
C           -4.77239433220444       -0.99657379707964       -0.51908789074841
O           -5.74617653718105       -1.39699625753140       -1.41032669325772
C           -6.32524796960601       -0.48417483440864       -2.30747247303213
C           -4.30606196191590       -2.01492496266250        0.46193011517352
O           -4.66011915930339       -3.27495817083243        0.56967760885352
C           -4.94445671393547       -5.22993965615383        1.80618578203550
C           -3.33269675248368       -1.45140014977792        1.32401098356837
C           -2.85575602378807       -0.15376251025005        1.28018394352098
C           -2.13648794265120        2.41668185242565       -1.17726968449163
C           -1.24826550123272        1.27574441726252       -1.71960710678110
C            0.06172565642135        1.17439396341433       -1.03425046430573
N            0.62330110453406        0.02114867294474       -0.63946539222788
C            1.99923845336307       -0.01246080956494       -0.20570339468339
C            2.94504269655824       -0.54112413547014       -1.30552093730233
C            4.37400596237272       -0.43701103452720       -0.85408820634546
C            5.09123016203029        0.72663551586544       -1.05270454647577
C            6.40246796051341        0.83898414008137       -0.60718930903055
C            7.01325778127192       -0.21318399367617        0.05271847061815
O            8.28800148170582       -0.21869270195501        0.52547481831892
C            9.08374755470352        0.92079473179683        0.32111694161800
C            6.28250578832105       -1.40560147515369        0.27295427093832
O            6.95951549467720       -2.38437503731607        0.92903007945912
C            6.31950847270449       -3.61389943669476        1.15858024727161
C            4.97703459163727       -1.49610006095809       -0.17668260880965
C           -0.07444946551848       -1.24423179908527       -0.70692243651679
C           -3.84719934442137        3.19353921114340        0.53519092381654
C           -4.51315461405657        2.90987753371078        1.88047780754390
C           -3.36214794429843        4.64344655931414        0.50273466034136
H           -4.60193872041774        1.01311518716921       -1.31340015973090
H           -6.78230950030244        0.37555716934189       -1.80073540930579
H           -7.11004670458468       -1.04371974931507       -2.82428534822319
H           -5.60982291517767       -0.11389385137425       -3.05296270913369
H           -5.23163243904427       -4.88137667808902        2.76679386583921
H           -5.68498401083407       -5.74406118715098        1.22415246079770
H           -3.94250022487819       -5.57666684457505        1.72980876993495
H           -2.96401897049592       -2.10537515762796        2.10091695381042
H           -2.14017587201917        0.15811444648779        2.02509267737733
H           -2.96619510385596        2.55881694688764       -1.87400366612251
H           -1.54780086104213        3.33729225896603       -1.15886247366281
H           -1.78889513685614        0.33456633557092       -1.66474956132916
H           -1.06592410434985        1.49545930341874       -2.78485302378346
H           -0.68390848492930        1.72461475064917        0.80960584489685
H            0.70394802014223        2.03961951269454       -1.02167410875912
H            2.09166468148250       -0.64777671299365        0.67850489497575
H            2.30949315248150        0.99729957281693        0.06916898731260
H            2.78970623689138        0.05932256101908       -2.20321343653855
H            2.69193547030867       -1.57741863723429       -1.53344043238530
H            4.63734286570931        1.55711638546494       -1.57300480649843
H            6.93740462507164        1.75778484729845       -0.78713097463628
H            8.66451435819769        1.80187919708648        0.81856890519943
H            9.21617151651218        1.13568528663880       -0.74460980035774
H           10.05014102182844        0.68444412088648        0.76358643231722
H            7.05633099909576       -4.23457816745583        1.66544925263958
H            5.44073834725522       -3.49971417684410        1.80218665264863
H            6.02352577036467       -4.09753840768863        0.22171145687802
H            4.40882646924677       -2.39987805262683       -0.01939412945114
H           -0.24212221574585       -1.55394315200866       -1.74270116893879
H           -1.04041108185531       -1.17933052317478       -0.19779548310789
H            0.50926708464434       -2.01856723824084       -0.21112148726516
H           -4.60413083984882        3.07199151382066       -0.24935453181739
H           -3.78773000784653        3.03849147347246        2.67633939911614
H           -4.89848937291405        1.89449611810400        1.91310198769502
H           -5.33798809187564        3.60249708557588        2.03757535788128
H           -2.58962573119656        4.80258508016761        1.24943054715064
H           -2.97019769620468        4.92116670475970       -0.47346048066303
H           -4.19586832062198        5.30353437169651        0.73127794126097
H           -0.67602419397854        2.97514312109943        2.76323524843910
