72
 energy: 69.641646638365 xtb: 6.6.1 (8d0f1dd)
N           -1.54926635175232        3.07753011996590        2.23208636909981
C           -1.53637570179488        2.38106779463530        1.19294627377320
C           -2.67899107822199        2.26883595749098        0.22682817093676
C           -3.25462427628515        0.86582936249024        0.29361667214464
C           -4.22645313676608        0.46232025763870       -0.63204147127705
C           -4.74227316002450       -0.81257047975804       -0.63016662811732
O           -5.71202010800798       -1.27075956839514       -1.47217266937909
C           -6.32014347962120       -0.37823855859919       -2.36008781104823
C           -4.26453884407592       -1.81273570125715        0.31812286720923
O           -4.64835279372489       -2.99442375894628        0.31663409318003
C           -5.18356193799380       -6.41522451200846        2.28993618306124
C           -3.31266176591837       -1.33395512285744        1.26953532098249
C           -2.83436331653992       -0.04966325495423        1.25794812783763
C           -2.07448589650453        2.51205909145830       -1.18305701912437
C           -1.22959258532703        1.34585776823538       -1.73094267065766
C            0.07736829810254        1.19756349593311       -1.05399219673514
N            0.62352906988776        0.04607342484854       -0.66658640598402
C            1.99107913129418        0.00275570152481       -0.21528930368907
C            2.93782312384914       -0.53653841879616       -1.30611896266599
C            4.36510057517534       -0.43224707097593       -0.84880714851073
C            5.08498046287432        0.72849647067743       -1.05507826073146
C            6.39618664614943        0.84039056222118       -0.61243806454940
C            7.00516299482440       -0.21101661148037        0.04858852388263
O            8.28030299331566       -0.21799953522137        0.51895186114028
C            9.08166207070854        0.91889229223681        0.31787194774561
C            6.27450709829830       -1.40263424876179        0.27065312488279
O            6.95556416425686       -2.38143494329844        0.92219613836150
C            6.32026867258375       -3.61240267015535        1.15934392497975
C            4.96873778928625       -1.49376868367542       -0.17571370666559
C           -0.09034155757544       -1.20429922149541       -0.74692467501249
C           -3.81050364271719        3.30038554224547        0.49644013244330
C           -4.51261022889112        3.02122219311343        1.82439923197616
C           -3.32701858650992        4.74949121005307        0.46466701162972
H           -4.57988831731473        1.18037692565192       -1.35939807714912
H           -6.77858128463077        0.46769232521170       -1.83502646995096
H           -7.09735772115062       -0.94422142082925       -2.87154350778920
H           -5.60920280141817        0.00332096422667       -3.10355509408047
H           -5.51556065117163       -6.03098976448344        3.22180229349299
H           -5.87816657419089       -6.51500522424722        1.49957558659916
H           -4.18971856401740       -6.75927829270819        2.15535311046718
H           -2.99451798389839       -2.05047634212396        2.01146615584662
H           -2.13061813372525        0.25947969549631        2.01926190953721
H           -2.89154418390469        2.68928994038835       -1.88114950384932
H           -1.46201136277917        3.41468234428963       -1.15485557015592
H           -1.81119764933041        0.42776529185228       -1.68471126610406
H           -1.03648613024119        1.56388374616348       -2.79061442695391
H           -0.65682103169464        1.80013008980406        0.84514760620084
H            0.71296401152254        2.06946483160984       -1.00515165562852
H            2.05985834297977       -0.63124507901113        0.67325520503702
H            2.31180679751091        1.00969970749138        0.05962744164717
H            2.79514930677255        0.05467149846501       -2.21277162456965
H            2.68474571708166       -1.57418378389086       -1.52712884011026
H            4.63356431539531        1.55911979915468       -1.57707607711701
H            6.93389707484047        1.75668682000993       -0.79614987543650
H            8.66686514330935        1.80170606170018        0.81597447084414
H            9.22000832933040        1.13418610535483       -0.74702815153487
H           10.04533618009632        0.67635783199913        0.76299261203218
H            7.06156923985265       -4.22739608417766        1.66709581080035
H            5.44338102120599       -3.49938449093742        1.80572685312305
H            6.02431530599100       -4.10211164750847        0.22572994816219
H            4.40415270538691       -2.39971620644634       -0.01780063901004
H           -0.25580074191302       -1.49799873952890       -1.78600985339530
H           -1.06050682627627       -1.13040312855575       -0.24718984366746
H            0.49048654311909       -1.98047113956250       -0.25560055338893
H           -4.54668537790679        3.17180764072014       -0.30532219128245
H           -3.81610280291421        3.14904563668703        2.64614175611950
H           -4.90525812438355        2.00803833999140        1.85140276201019
H           -5.34023569625503        3.71396699327629        1.95610031646574
H           -2.57872481840017        4.91421485921601        1.23358577618397
H           -2.91063999435427        5.01735592492205       -0.50299143724562
H           -4.16698804735188        5.41151468483123        0.66022153456876
H           -0.70157273103206        3.07582592600078        2.79460847838570
