72
 energy: 51.949218642334 xtb: 6.6.1 (8d0f1dd)
N           -1.54172748708690        2.91952314699372        2.25061907748858
C           -1.55409324148375        2.25282639780560        1.18840017083379
C           -2.72660127387582        2.14079691286445        0.24486452745205
C           -3.29191633759128        0.72309131653544        0.32884381090034
C           -4.25551496237068        0.25327575306242       -0.56138292480563
C           -4.78309527323470       -1.05346807271742       -0.50068107504394
O           -5.75788309183957       -1.42762698180218       -1.39640642580939
C           -6.33522954077269       -0.51020340751549       -2.30045701360262
C           -4.32285496862932       -2.05538827728968        0.50042916441553
O           -4.75027336855519       -3.45285017819043        0.62474740933896
C           -4.86043072257964       -4.85193527704809        1.64942079785667
C           -3.36110311614329       -1.49011742265980        1.33568777625762
C           -2.87251567348309       -0.18312754888385        1.28179502404240
C           -2.15222485717599        2.39139505049402       -1.18001690701737
C           -1.25138363410038        1.25910876111438       -1.71413858511362
C            0.04181003524852        1.19189532996192       -0.99531054330480
N            0.63061048190300        0.00158379237006       -0.61801204493311
C            1.99959379275977       -0.02118352735337       -0.19940021504253
C            2.94941159686584       -0.54265097339283       -1.30211154911762
C            4.37212370985619       -0.43774862545637       -0.85391729547481
C            5.08948887948867        0.72736279365156       -1.05075252098317
C            6.39980193360419        0.83979059452167       -0.60550796531370
C            7.01097786169485       -0.21282822346197        0.05405460578515
O            8.28986101891463       -0.21814788487840        0.52799671530144
C            9.08130546703366        0.92173340548307        0.32116217641087
C            6.28113278614493       -1.40361601217858        0.27419447767657
O            6.96130716927004       -2.38593544616812        0.93073039787944
C            6.31949335973551       -3.61328978666071        1.15780264237271
C            4.97614962632270       -1.49542207720634       -0.17396169494665
C           -0.06758306271609       -1.25596253636798       -0.69108332860210
C           -3.85321247706843        3.16802323188041        0.54453334834791
C           -4.51063494178860        2.88283792711168        1.89363886383627
C           -3.36913634851190        4.61911563764547        0.51209283805625
H           -4.60650166655491        0.97232460158433       -1.30372796618140
H           -6.79353900651210        0.35043885449653       -1.79858042890276
H           -7.11996860881536       -1.07214043804198       -2.81498630248945
H           -5.62025936499385       -0.14590534947703       -3.04758303871619
H           -5.14947099575851       -4.62914797921957        2.67216374899241
H           -5.59477792432279       -5.53408542231316        1.20003730317533
H           -3.88171726749489       -5.31697575967285        1.65042817068140
H           -2.97597119822608       -2.13344305714253        2.10927498132378
H           -2.14532678827675        0.12436796588266        2.01582081401648
H           -2.98190156965174        2.52638813136780       -1.87829557373030
H           -1.56993349155716        3.31663299580120       -1.16755284239639
H           -1.78597251289700        0.31344318505024       -1.65684027390693
H           -1.06213892560457        1.46761780182179       -2.78074766827634
H           -0.68506787239879        1.70578867307482        0.77755363239826
H            0.69648300662801        2.03888911158295       -1.01178107249225
H            2.10490342336234       -0.65442227700010        0.68672696020603
H            2.30216055585907        0.99170958982433        0.07418720598462
H            2.78553032826479        0.06052886890273       -2.19646373486158
H            2.69055391462617       -1.57764718203954       -1.53000897785778
H            4.63404512232325        1.55709562854659       -1.57068127594546
H            6.93503060827566        1.75858875258505       -0.78627573426945
H            8.66161120965648        1.80344018452835        0.81780715282495
H            9.21309684099873        1.13666554786178       -0.74508641113097
H           10.04849448949453        0.68752814353804        0.76310142143454
H            7.05544515462731       -4.23630434388921        1.66399104193329
H            5.43991100650069       -3.50023044449478        1.80114814911872
H            6.02218020657398       -4.09633826612999        0.22048643585369
H            4.40709957687676       -2.39893976141516       -0.01685512438943
H           -0.23861826372658       -1.57119882909711       -1.72702635413506
H           -1.03385569845685       -1.19217864133059       -0.18166876280498
H            0.51865190353984       -2.02842053617343       -0.19371753433565
H           -4.61534772811243        3.04997619298700       -0.23626216482723
H           -3.77967147417707        3.01068174598877        2.68473462777901
H           -4.89496384357832        1.86669680327194        1.92737180027241
H           -5.33563299086762        3.57371075154206        2.05744556521055
H           -2.59103137390933        4.77717410718890        1.25304849427721
H           -2.98429986739714        4.89874303511139       -0.46617145332812
H           -4.20186400412106        5.27896025773255        0.74746984933858
H           -0.65978064000780        2.93153193357892        2.75382107320358
