72
 energy: 71.139244144778 xtb: 6.6.1 (8d0f1dd)
N           -1.57070343561261        3.01349954023021        2.25109767148187
C           -1.56513815950835        2.33249321745856        1.20289041611914
C           -2.70870085236854        2.20222504514894        0.23770130738069
C           -3.26726241534858        0.79196756454485        0.31335527635393
C           -4.23565304888650        0.35419382740756       -0.59571999912809
C           -4.75642560665037       -0.92873046388839       -0.55818557668031
O           -5.72252613944080       -1.35787223053605       -1.42976089538935
C           -6.31085245283922       -0.44377431730012       -2.31668380438494
C           -4.28279148535208       -1.92752037640994        0.41890190518270
O           -4.63605360975235       -3.12856550296202        0.52979165734615
C           -5.05439127534835       -5.62779292088380        1.93303892286827
C           -3.31136859695071       -1.39207814286052        1.31757356677301
C           -2.83813075585011       -0.10771025387625        1.27922707926833
C           -2.11506438047985        2.45325970760019       -1.17638133880801
C           -1.24079597581225        1.30628072531167       -1.73112787504607
C            0.08343838955593        1.18150433273842       -1.08112930709829
N            0.61885305695430        0.04075629674738       -0.65551622923710
C            1.99580604196015       -0.00109318731023       -0.21378676570328
C            2.94083824776979       -0.53825460298356       -1.30848614072656
C            4.37211689325642       -0.43470364909787       -0.85180663962679
C            5.09206783938372        0.72629887130558       -1.05531556910673
C            6.40298765168033        0.83806269399991       -0.61097683276940
C            7.01276731443312       -0.21306747778676        0.04901745033040
O            8.28472204331594       -0.21781282024168        0.52335257767117
C            9.08576811255031        0.92011067315861        0.32064568055367
C            6.28143828356317       -1.40639538805061        0.26835897744090
O            6.95738317536419       -2.38274743120690        0.92624650473042
C            6.31944635471363       -3.61359569489547        1.15881067980812
C            4.97650597541798       -1.49719788960004       -0.18052319424946
C           -0.08178390790358       -1.22354502717379       -0.72760264564564
C           -3.83956583492449        3.22920438848214        0.52111081719033
C           -4.51724739717659        2.94960252650624        1.86137012604146
C           -3.35170512969250        4.67771799094302        0.48879679064730
H           -4.58808505944110        1.06709666273093       -1.33452293524750
H           -6.76476805203543        0.41160483297045       -1.80041596029489
H           -7.09488852242352       -1.00131085063270       -2.83489163308385
H           -5.59511940882903       -0.06621624315680       -3.05824734343834
H           -5.34258742781309       -5.24247797407390        2.86981357154454
H           -5.79211665928239       -6.00248181354663        1.25848206309469
H           -4.05353456065601       -5.94008373407121        1.83506192968512
H           -2.95237336035289       -2.06487640464345        2.08552032094398
H           -2.13297917338099        0.20263211452835        2.03561357586961
H           -2.94301933151824        2.61002844022038       -1.87214383891848
H           -1.51527759832918        3.36605905412991       -1.14792042861558
H           -1.78750887738378        0.36824745167302       -1.67916979014508
H           -1.06951067373431        1.54266781806179       -2.79189501160521
H           -0.68426989640337        1.74987606480016        0.86177191925636
H            0.72745345985289        2.04774129731429       -1.04828819625663
H            2.07542804701202       -0.63959084473147        0.66903766082686
H            2.31682174403228        1.00521048483344        0.06294132879999
H            2.79488505386549        0.05769521205571       -2.21096634825365
H            2.69190329565383       -1.57532627506161       -1.53588715064519
H            4.64109173463581        1.55792937124880       -1.57633978346526
H            6.93841304516307        1.75645593785287       -0.79078335605475
H            8.66854589288966        1.80103809737570        0.81919627776478
H            9.22015658172803        1.13425451737346       -0.74456730058014
H           10.05016743420699        0.67907936055358        0.76447425836321
H            7.05821815014628       -4.23126130125512        1.66650648576404
H            5.44186653289059       -3.49875168573671        1.80359968783508
H            6.02505906814903       -4.09959697734281        0.22293953929392
H            4.41100848817201       -2.40251966330905       -0.02292898477907
H           -0.24487369068252       -1.52667922098610       -1.76463606897586
H           -1.04897473726646       -1.16036674364969       -0.22183625558824
H            0.49860490973034       -2.00126516649481       -0.23400666348040
H           -4.58960039881978        3.10659166320633       -0.26911084645049
H           -3.79905455429081        3.07960635182166        2.66328194086786
H           -4.90562929925042        1.93546842983219        1.89399393663263
H           -5.34098301328900        3.64522546491026        2.01011358133924
H           -2.58724240692874        4.83684029122817        1.24338888530849
H           -2.95015985390570        4.95300891897465       -0.48410624988688
H           -4.18600446725963        5.33950137873234        0.70788003950030
H           -0.70624341225515        3.02914046275365        2.78379881463144
