72
 energy: -5.004939212073 xtb: 6.6.1 (8d0f1dd)
N           -1.49742004867280        2.78899526308800        2.23881399426105
C           -1.55064376437531        2.16096158476498        1.15329048924384
C           -2.74382178804796        2.06907278224100        0.24459739481368
C           -3.31272062035230        0.65647523721894        0.32708509959208
C           -4.29807988072590        0.24337675260740       -0.57017153389406
C           -4.83785361952321       -1.03315398969639       -0.52221226407399
O           -5.81012549280826       -1.48335132195903       -1.36783621315491
C           -6.38717738861848       -0.59744183984445       -2.29480823612151
C           -4.38875015390369       -1.96397415434341        0.45488232885315
O           -4.97024179968386       -3.20800500574396        0.44250420918611
C           -4.68886121970029       -4.18488497372792        1.43016281583004
C           -3.41461194874668       -1.53818546453877        1.33872697908124
C           -2.88628272961157       -0.25241280354062        1.27810214748458
C           -2.18957282401655        2.31234417188880       -1.18478706836832
C           -1.26132611497481        1.18693796940386       -1.67123932570524
C            0.00719211452442        1.13510074335452       -0.89988324038928
N            0.63501472580167       -0.04411223099300       -0.56420812477597
C            2.00305925405257       -0.03269185623510       -0.16165564733941
C            2.93678462493680       -0.54072526111823       -1.28113449886822
C            4.36043503312233       -0.43348986115471       -0.83883096968332
C            5.07696707780315        0.73097208446954       -1.04248847890612
C            6.38783118266068        0.84227465523474       -0.60322858601056
C            6.99786750990421       -0.20951268226977        0.05616967273323
O            8.27679441740391       -0.21217124871298        0.52689751831902
C            9.07014923182307        0.92744865171854        0.31925040822354
C            6.27075703573191       -1.40056400793489        0.27934398745930
O            6.95362071494434       -2.38354656811688        0.93051991743280
C            6.31627349770697       -3.61449423266720        1.15286464502001
C            4.96603394002196       -1.49349838049956       -0.16378784320857
C           -0.05282481219120       -1.29920332082593       -0.62910811308587
C           -3.86682638425877        3.08853717907037        0.57861122532467
C           -4.49707196953240        2.78852655467169        1.93737355940838
C           -3.39081426080010        4.54050140253192        0.54405443136346
H           -4.65046871025154        0.94570559658116       -1.31153957172196
H           -6.84253568275153        0.26978746483807       -1.80435538244794
H           -7.16601307146679       -1.17176329734768       -2.79613218434819
H           -5.66231916189908       -0.25349091175768       -3.04099740297372
H           -4.91573527426170       -3.82963291622143        2.44141275596920
H           -5.33155286427354       -5.03687479521945        1.20583101654339
H           -3.64413162326400       -4.51328261687329        1.39521771896834
H           -3.05755512571778       -2.21059938438274        2.10236356370443
H           -2.14537591927046        0.03514657422436        2.00788726470829
H           -3.01981993348597        2.40293681105930       -1.88651162697910
H           -1.63967512686649        3.25549345988659       -1.19857285385028
H           -1.80103413518350        0.24147915218066       -1.62638956911983
H           -1.01463758269952        1.38618263871789       -2.72251744286197
H           -0.68436553880607        1.65728849066388        0.65612998018402
H            0.65100374812431        1.99543709215803       -0.94825328011710
H            2.12247777575365       -0.66494537695931        0.72454912117591
H            2.29983231516260        0.98483182588452        0.10593811517665
H            2.76849371176561        0.06663685728298       -2.17238004881030
H            2.68148476749008       -1.57533647039014       -1.51439819619844
H            4.62262330125357        1.56125145695228       -1.56264863771199
H            6.92563014427564        1.75784390738630       -0.79003775693843
H            8.65200594527166        1.80944293223176        0.81636887637440
H            9.20262237886902        1.14051392812190       -0.74706634640130
H           10.03687876296875        0.69120137939437        0.76107787523740
H            7.05524250434080       -4.23712802072554        1.65507533004102
H            5.43794436714659       -3.50662840401485        1.79880674106500
H            6.01981462754673       -4.09378347762176        0.21346433864038
H            4.40162131749314       -2.39986159327955       -0.00679206227105
H           -0.22353062759826       -1.61715637801445       -1.66349182662695
H           -1.01937452115483       -1.23549472241439       -0.11977634948339
H            0.55279546000771       -2.05221850421766       -0.13023496307358
H           -4.64060371509138        2.96832163427653       -0.18895934682378
H           -3.76053146400604        2.91566391770978        2.72404652701501
H           -4.87685511790648        1.77034679093182        1.97212343777452
H           -5.32409964006599        3.47174383313666        2.11651339117168
H           -2.59864360939827        4.69920646552186        1.26976012478601
H           -3.03253781486770        4.82706823848665       -0.44180020117165
H           -4.22165267839197        5.19433018834720        0.79951063258044
H           -0.60537845347181        2.78719150061099        2.73014736147892
