72
 energy: 69.266048767253 xtb: 6.6.1 (8d0f1dd)
N           -1.54844327736594        3.06950534634327        2.23806533301024
C           -1.53722460717714        2.37860139664088        1.19502749560551
C           -2.67984847883167        2.26729334058013        0.22853810057829
C           -3.25719328173291        0.86132199333669        0.29394283604272
C           -4.22884940389525        0.45977934552271       -0.63262211139199
C           -4.74763124545299       -0.81349550608984       -0.62789496991973
O           -5.71231870782124       -1.26326705493398       -1.47723347029761
C           -6.32175926594617       -0.36929274107389       -2.36540606564471
C           -4.27836097219193       -1.82558363933579        0.31762244742128
O           -4.67788741083999       -3.00244667737685        0.29233248985749
C           -5.15170104453827       -6.44427674738865        2.35176442246637
C           -3.32283949600999       -1.34551517654203        1.26757604419070
C           -2.84221569867842       -0.05984640594328        1.25469876659190
C           -2.07743362301523        2.51072801523564       -1.18246302645402
C           -1.23215855757800        1.34513782870573       -1.72827650130416
C            0.07628827798352        1.19839135727389       -1.05375837538848
N            0.62301956192373        0.04522324021978       -0.66922038868491
C            1.99161422080438        0.00375550676724       -0.21719951424759
C            2.93864494388675       -0.53601980219202       -1.30637676140018
C            4.36631379549484       -0.43174641087544       -0.84816348113668
C            5.08618454868168        0.72916489125531       -1.05425584961689
C            6.39741466331578        0.84085938287356       -0.61186863921884
C            7.00636309871217       -0.21064328871369        0.04884408510036
O            8.28051644118166       -0.21748554255458        0.51940710563467
C            9.08315314452375        0.91894343336116        0.31855825660379
C            6.27555159131768       -1.40276690345562        0.27035830518017
O            6.95558480049212       -2.38083745586178        0.92275897774641
C            6.32057712210127       -3.61232150984132        1.15901035750955
C            4.96980689331184       -1.49373621788826       -0.17605380868888
C           -0.09082483809718       -1.20613135608560       -0.74808045988011
C           -3.81263656267642        3.29743018891344        0.50099000556558
C           -4.51148986986996        3.01524401976426        1.82965097231939
C           -3.33000582612673        4.74618570917717        0.46900074814598
H           -4.58204221776934        1.17630735961005       -1.36065681684570
H           -6.78154484555490        0.47650989981779       -1.84100435593580
H           -7.09805891944120       -0.94140459441828       -2.87243246461782
H           -5.61309824639328        0.01188833151000       -3.11141867969670
H           -5.46524197226321       -6.03523117606833        3.28707998921054
H           -5.82477939663366       -6.45517133696996        1.52235302158280
H           -4.13836615025956       -6.75418865166607        2.21918634212356
H           -2.99052189142086       -2.05050581273037        2.01582896434256
H           -2.13664104974822        0.24618182455448        2.01660963273401
H           -2.89522851751722        2.68344812389391       -1.88199911973272
H           -1.46433071887885        3.41348430381823       -1.15787952169500
H           -1.81216535078080        0.42486046648490       -1.68500577986903
H           -1.03374212913809        1.56913430989648       -2.78563063405437
H           -0.65676738385859        1.79948851732622        0.84994696824336
H            0.71281213798655        2.06980192715782       -1.00547779855456
H            2.05839804434735       -0.63050044497013        0.67116042357171
H            2.31246230069012        1.01090241525184        0.05882385373799
H            2.79741065370423        0.05497948143320       -2.21350433834435
H            2.68622590651523       -1.57353239996536       -1.52822915826726
H            4.63509498314157        1.56043295025501       -1.57566210470498
H            6.93511225161323        1.75717782397988       -0.79579243240305
H            8.66839321397761        1.80145129979975        0.81693673381714
H            9.22137775090292        1.13380471510407       -0.74627057757173
H           10.04645125786196        0.67506461500388        0.76371672002927
H            7.06213152462496       -4.22730451197876        1.66641191690346
H            5.44378050995626       -3.49930954586062        1.80537391319971
H            6.02492570722891       -4.10139723047512        0.22494089665625
H            4.40523138799857       -2.39978578453293       -0.01823842213443
H           -0.25569823136417       -1.50239050205097       -1.78647584059120
H           -1.05975298656773       -1.13017003620147       -0.24661350772705
H            0.49113760199751       -1.98032313324483       -0.25492597671588
H           -4.55035369761240        3.17056669302997       -0.29968962921500
H           -3.81315709301329        3.14145241943818        2.65011017951362
H           -4.90272808394705        2.00137189071323        1.85368075514567
H           -5.33887852379414        3.70844204928498        1.96352520672945
H           -2.57877956401594        4.90817725255559        1.23572674908358
H           -2.91621666670106        5.01362518612206       -0.50042825112813
H           -4.16937611590403        5.40823097365014        0.66782438309392
H           -0.70178722299447        3.07156860857097        2.80131176191093
