72
 energy: 36.225223141012 xtb: 6.6.1 (8d0f1dd)
N           -1.53457281867816        2.90376546728746        2.24843994102394
C           -1.55346616600277        2.23677762163987        1.18514095269032
C           -2.72988750982776        2.12934536465911        0.24572714812820
C           -3.29650662966247        0.71190668534579        0.33015264254440
C           -4.26025351236728        0.24106455374697       -0.55686473596644
C           -4.79052329880739       -1.06729834570876       -0.49535904990407
O           -5.76442938633725       -1.43933145562906       -1.39057969140064
C           -6.34089943214321       -0.52341715063914       -2.29790070678194
C           -4.33782617202667       -2.05521125111523        0.51156809080324
O           -4.80938714877439       -3.47160548557986        0.63936336931724
C           -4.83080269931127       -4.72790037137626        1.59931307027499
C           -3.37125365545086       -1.49939432606581        1.34079386933870
C           -2.87702382431980       -0.19478395442520        1.28311232015257
C           -2.15878408577224        2.37907064260563       -1.18018089083072
C           -1.25262129463991        1.24888550567317       -1.70726930305402
C            0.03242548144802        1.19170654601986       -0.97121768237142
N            0.63343787823931       -0.00597360654278       -0.61205526674026
C            2.00038418607672       -0.02451562156886       -0.19454549191270
C            2.94908700716065       -0.54300881260813       -1.29926334219549
C            4.37084391272859       -0.43743426716620       -0.85233327861097
C            5.08805236952169        0.72784308894025       -1.04998249072051
C            6.39820401996114        0.84022533719424       -0.60548258372347
C            7.00917764340319       -0.21241846130494        0.05401412206502
O            8.28831892006258       -0.21705329102983        0.52811782456880
C            9.07970019268534        0.92256102116109        0.32074582776301
C            6.27998730223578       -1.40284010264373        0.27487382788354
O            6.96104225248863       -2.38561998867337        0.93182566964057
C            6.31936491480956       -3.61305374175355        1.15753310843748
C            4.97516335582682       -1.49513068389565       -0.17249318628136
C           -0.06469346012182       -1.26201512354632       -0.68272964225801
C           -3.85569072081642        3.15662479203002        0.54945837234464
C           -4.50882478696435        2.86965833278066        1.90023747871440
C           -3.37226913163846        4.60796712341155        0.51598017015872
H           -4.61198715816820        0.95954944632716       -1.29848341312749
H           -6.79910200878551        0.33836655289255       -1.79832590554062
H           -7.12551524068810       -1.08586677068954       -2.81195000600887
H           -5.62497449626277       -0.16181036125595       -3.04517318994201
H           -5.11393202630639       -4.51333797459308        2.63366481624556
H           -5.55779039110990       -5.45188271700460        1.19167953974358
H           -3.84832322262080       -5.20375693776164        1.61608658279039
H           -2.98381809778156       -2.14515576727854        2.11105829737248
H           -2.14736412465817        0.11149342185879        2.01500358701229
H           -2.98874266607901        2.50873147069409       -1.87881484005853
H           -1.57998567723605        3.30637562954123       -1.17065496885945
H           -1.78693998933665        0.30249080038210       -1.65121847581275
H           -1.05651143311911        1.45410309849175       -2.77302828403319
H           -0.68562648551052        1.69662524300665        0.75922497205097
H            0.69126330445493        2.03450560234406       -1.00487629564710
H            2.11013028495563       -0.65701169745755        0.69183885797889
H            2.30021572291739        0.98937009871765        0.07834312239291
H            2.78321037495487        0.06101818036400       -2.19284802070597
H            2.68954750007053       -1.57769821297605       -1.52783305515178
H            4.63240576796534        1.55738782357579       -1.56994590164473
H            6.93380650116465        1.75863216326572       -0.78687473983685
H            8.66028163759372        1.80452800440552        0.81719965920169
H            9.21158257941723        1.13716652707993       -0.74563379871036
H           10.04706349375947        0.68857336167673        0.76254150510843
H            7.05548873468156       -4.23645044967663        1.66321190059265
H            5.43965896771194       -3.50072633808394        1.80097137323407
H            6.02190897415389       -4.09567183134990        0.21995546334306
H            4.40625114716761       -2.39866556255576       -0.01529031526713
H           -0.23726930546399       -1.57892179545181       -1.71827828787289
H           -1.03083475591964       -1.19819647356707       -0.17250740556912
H            0.52355999708281       -2.03277819296867       -0.18511513319504
H           -4.61969431988308        3.03850846738453       -0.22948981132814
H           -3.77645975672155        2.99787277714223        2.69011153031209
H           -4.89176864956191        1.85290176265298        1.93436353738269
H           -5.33456539999064        3.55902323774447        2.06623624391420
H           -2.59196889430151        4.76641612381179        1.25453193442484
H           -2.99065505166833        4.88781399103869       -0.46343197893587
H           -4.20468170307836        5.26749254066540        0.75369605751463
H           -0.65087176205785        2.91200010121710        2.74878716627307
