72
 energy: -2.713050423120 xtb: 6.6.1 (8d0f1dd)
N           -1.50351528464756        2.80721962498728        2.24286035401506
C           -1.55139130314510        2.17171901112229        1.16155547320059
C           -2.74152916135197        2.07837812781741        0.24579334830506
C           -3.31036502931738        0.66477827673076        0.32940724184688
C           -4.29191108679370        0.23780472221866       -0.56322697350540
C           -4.82840677999778       -1.04571897982461       -0.51309582696184
O           -5.80222625586467       -1.47795672012493       -1.37106412317697
C           -6.37877116882132       -0.58580058971351       -2.29449060563042
C           -4.38007950458741       -1.98579359715263        0.46822915050440
O           -4.94710450039216       -3.25001338759830        0.47669873631537
C           -4.71332164936254       -4.27154910320544        1.45438118223285
C           -3.40689275294088       -1.53253555963898        1.34183355289263
C           -2.88507863315408       -0.24360287189138        1.28070826116695
C           -2.18391899021798        2.32248298517884       -1.18344298556622
C           -1.25892089482947        1.19613476716510       -1.67699362372278
C            0.01130240552877        1.14316629589668       -0.90705091286036
N            0.63745123107391       -0.04158641230645       -0.56933809884424
C            2.00452553182070       -0.03336566543487       -0.16582061235192
C            2.93935100584212       -0.54149789830668       -1.28405866272068
C            4.36249650198042       -0.43423917284959       -0.84138101510215
C            5.07886619813716        0.73045193944310       -1.04398921558354
C            6.38957107472296        0.84192043327957       -0.60377938687866
C            6.99958219496013       -0.21021763915269        0.05526308874778
O            8.27854247451170       -0.21297517997867        0.52697812010840
C            9.07170773102471        0.92664382158286        0.31933814380134
C            6.27205614062663       -1.40055043530570        0.27857737308941
O            6.95466500305226       -2.38367786756251        0.93077504183797
C            6.31673069439799       -3.61420171316226        1.15345672437121
C            4.96753851981835       -1.49373887057372       -0.16536781145387
C           -0.05423907935959       -1.29460724664764       -0.63779374786887
C           -3.86548692617007        3.09963348927993        0.57327185751100
C           -4.49931444503389        2.80202183963346        1.93087446191632
C           -3.38816858975747        4.55160002787526        0.53934622610235
H           -4.64135003322308        0.94365489321030       -1.30627111445452
H           -6.83518170418750        0.28077792116673       -1.80342950770848
H           -7.15888830750436       -1.15784085012014       -2.79834259726851
H           -5.65615040160020       -0.23869849883262       -3.04152957957849
H           -4.94866910530555       -3.94367116920905        2.47333364649330
H           -5.37167566651875       -5.10528256362361        1.19976485767392
H           -3.67748876425666       -4.62837053031924        1.43407131111952
H           -3.04431202428031       -2.20128691681146        2.10539265469056
H           -2.14472819759873        0.04779811262552        2.00899066292374
H           -3.01436137238324        2.42016348903670       -1.88481210598958
H           -1.62908273797733        3.26297666857913       -1.19375464228905
H           -1.79845861198977        0.25114323386319       -1.63098207887181
H           -1.02098961623588        1.39572653203785       -2.73161339751591
H           -0.68451674713872        1.66339762762488        0.67385847616971
H            0.65677798200747        2.00138180051052       -0.95723290816753
H            2.12477697569308       -0.66530295070887        0.71987623339898
H            2.29924557810911        0.98431780528448        0.10222339012018
H            2.77070670618961        0.06552534052171       -2.17544492171209
H            2.68311883511458       -1.57599493515876       -1.51668071330219
H            4.62407036323452        1.56051215264735       -1.56389387665512
H            6.92703472987354        1.75798309771333       -0.78945454104694
H            8.65328570479934        1.80858299437680        0.81628351024913
H            9.20411172416505        1.14003902033386       -0.74698811753804
H           10.03859808328344        0.69096222455162        0.76117255775447
H            7.05526423531750       -4.23712069640231        1.65609555211496
H            5.43809807314428       -3.50573708023052        1.79890134381939
H            6.01995920474872       -4.09382254796267        0.21433677850863
H            4.40227034254061       -2.39938669140916       -0.00802467395340
H           -0.22578031217838       -1.61124602320752       -1.67272296505877
H           -1.02068619355516       -1.22918582484912       -0.12843274884999
H            0.54761091230717       -2.05105471252802       -0.13920202350107
H           -4.63803462790055        2.98013937569742       -0.19609315445436
H           -3.76254436751793        2.92899227850445        2.71729142753943
H           -4.87934087464906        1.78401053602396        1.96528978828208
H           -5.32612034186800        3.48631963776049        2.10845836547960
H           -2.59764362685960        4.70991619666426        1.26699869483956
H           -3.02563310524553        4.83716406621712       -0.44534094791762
H           -4.21922945061639        5.20646307504660        0.79224120189510
H           -0.61345600428498        2.80711426734184        2.73672852060660
