72
 energy: 7.158999540031 xtb: 6.6.1 (8d0f1dd)
N           -1.51594637467542        2.84499538923712        2.24659988275294
C           -1.55198025274246        2.19575599109673        1.17325900147960
C           -2.73668773630702        2.09741289667703        0.24625094454971
C           -3.30429346081074        0.68133623684926        0.33160581634464
C           -4.27733557344583        0.22788881500011       -0.55380738316737
C           -4.81071761127104       -1.06947450162086       -0.49573484074104
O           -5.78690808163802       -1.46636342666789       -1.37718082853743
C           -6.36234173483536       -0.56193406257187       -2.29394105063719
C           -4.36599756590391       -2.02872643446834        0.49590434139336
O           -4.90203489836159       -3.33824082205377        0.54771375793011
C           -4.76185287502428       -4.44993413917385        1.50701047647813
C           -3.39232738183095       -1.52139703797541        1.34604808246525
C           -2.88220676720131       -0.22607722514494        1.28411760241413
C           -2.17375460131787        2.34445093092205       -1.18208965232027
C           -1.25568108713219        1.21682328339514       -1.68887710472340
C            0.01813995593425        1.16415355925392       -0.92556079441144
N            0.63954065078218       -0.02943351161949       -0.59097814198061
C            2.00412272207083       -0.03122242441293       -0.17742107553559
C            2.94399770892308       -0.54228000876252       -1.29013767378126
C            4.36615002152262       -0.43546825837466       -0.84597821963911
C            5.08257028729429        0.72954403138935       -1.04641551266038
C            6.39299372349262        0.84144314451490       -0.60434495080931
C            7.00344667940149       -0.21099950754879        0.05455600303135
O            8.28234404919371       -0.21456254115689        0.52754864436420
C            9.07489641971003        0.92495504016303        0.31987505313287
C            6.27510276861230       -1.40073518740779        0.27680903359776
O            6.95695540991261       -2.38406148039001        0.93120095839520
C            6.31765761900059       -3.61352052828905        1.15480970265430
C            4.97054346381216       -1.49405223278810       -0.16830799133708
C           -0.05808810887798       -1.28195403305229       -0.65646533737464
C           -3.86141831108580        3.12184755620446        0.56326127212133
C           -4.50293041222945        2.82859272088873        1.91823700842573
C           -3.38202038905327        4.57389881968727        0.53018748335754
H           -4.62269538264906        0.93938844958714       -1.29821556503038
H           -6.82058716102268        0.30333034413670       -1.80129030511245
H           -7.14488846456449       -1.12915947586337       -2.80308525507767
H           -5.64357250236168       -0.20874091564184       -3.04221319021481
H           -5.01508308364370       -4.17096984216031        2.53649803452243
H           -5.45001880474438       -5.24389616986606        1.19154593638239
H           -3.74505962124051       -4.85787308975086        1.50902051289427
H           -3.01718594690310       -2.17982336742046        2.11177142371106
H           -2.14437835337869        0.07319595057990        2.01124223888258
H           -3.00439689040895        2.45575772020252       -1.88230339178081
H           -1.60912805721982        3.27975719951964       -1.18455081196509
H           -1.79309511549659        0.27140261062947       -1.63943053346272
H           -1.03473413156883        1.41750743513504       -2.74886901783312
H           -0.68450857813564        1.67575323444426        0.70786869330961
H            0.66997868628566        2.01498689663924       -0.97601788015306
H            2.12240243767753       -0.66286278723672        0.70831783077181
H            2.29802367787295        0.98550124337687        0.09304432215165
H            2.77567716026252        0.06363320619272       -2.18227612342527
H            2.68581978477944       -1.57665513938157       -1.52127735123407
H            4.62713015437135        1.55928074757246       -1.56608852290285
H            6.92963947995535        1.75848157930002       -0.78801691151495
H            8.65609822982024        1.80689843343222        0.81658505850014
H            9.20707213182722        1.13887981296320       -0.74648134181866
H           10.04206274968301        0.69014279162757        0.76161496272219
H            7.05527372546368       -4.23683477110212        1.65853903854774
H            5.43850302199571       -3.50377829039844        1.79936215781830
H            6.02046473317855       -4.09424431429699        0.21634799554555
H            4.40362596906291       -2.39859186839026       -0.01080226467574
H           -0.23129850335356       -1.59911924834382       -1.69135554695513
H           -1.02424542785225       -1.21605554985087       -0.14619250994333
H            0.53776885790385       -2.04438381380448       -0.15792874000284
H           -4.63088288205133        3.00358275707558       -0.20990339153216
H           -3.76711465133766        2.95563697909372        2.70534904948710
H           -4.88403046570063        1.81108233974090        1.95226535588516
H           -5.32926616957266        3.51499593668032        2.09184964977776
H           -2.59527299821469        4.73205819825997        1.26198732484590
H           -3.01181754132465        4.85773394582587       -0.45230891338363
H           -4.21375510090332        5.23048505034490        0.77761785700787
H           -0.62913833308437        2.84796192411274        2.74375185951191
