72
 energy: 69.962778069211 xtb: 6.6.1 (8d0f1dd)
N           -1.55783697238774        2.97269002790169        2.25206747348420
C           -1.56053947883007        2.30443292278798        1.19615340260800
C           -2.71579927737333        2.17895689265536        0.24217169770842
C           -3.27655718889016        0.76625187611404        0.32137759097199
C           -4.24163638676787        0.31603264977548       -0.58326988728381
C           -4.76874375153366       -0.97079180782521       -0.53077442819388
O           -5.73889024178014       -1.38193766724063       -1.41578374082929
C           -6.32082871616939       -0.47044338446390       -2.31137727107021
C           -4.30207596478513       -1.98429031810825        0.44832740013261
O           -4.65063189195673       -3.21959687490620        0.55224510167528
C           -4.97983245415617       -5.37291276531641        1.85744305568897
C           -3.32368665461749       -1.43145561308845        1.32200801866812
C           -2.84872333992167       -0.13887772428372        1.27904355288978
C           -2.12906907400991        2.42922667846974       -1.17677314155180
C           -1.24594637043017        1.28526043290496       -1.72331867818795
C            0.06838345010675        1.17287315212268       -1.04772801290995
N            0.62178832390757        0.02640106538839       -0.64438729180391
C            1.99849225458562       -0.00912686282105       -0.20777558993611
C            2.94379443753526       -0.54057912184277       -1.30644294020962
C            4.37406566609240       -0.43639582328741       -0.85356121262070
C            5.09178399873174        0.72655931160539       -1.05367715375070
C            6.40304228538352        0.83883549983350       -0.60860258164111
C            7.01361311579147       -0.21319712491675        0.05113086892495
O            8.28707193655433       -0.21857031198215        0.52468077920510
C            9.08465951395544        0.92028418094198        0.32094383338479
C            6.28252730607441       -1.40592656756168        0.27134983965393
O            6.95880545673748       -2.38382731626388        0.92822135798919
C            6.31949723315379       -3.61403048376291        1.15879650236332
C            4.97720022362219       -1.49648035903474       -0.17796740101019
C           -0.07683594486099       -1.23859421018951       -0.71419808611676
C           -3.84422087489287        3.20632384843855        0.53053591798934
C           -4.51434696267200        2.92326540563772        1.87392790552147
C           -3.35872558315909        4.65595394963949        0.49826066055011
H           -4.59865614248898        1.03220582840604       -1.32001727383224
H           -6.77695221126240        0.38783398124204       -1.80131106349839
H           -7.10544238810299       -1.02951838905051       -2.82841236283143
H           -5.60535461362475       -0.09794407090607       -3.05567994123849
H           -5.26836052200086       -5.00402830348806        2.80488643142129
H           -5.72071846734237       -5.83430548812335        1.23767581632561
H           -3.97686755987553       -5.69867782415115        1.76669768703525
H           -2.95777044610788       -2.09101395229058        2.09800286161484
H           -2.13806081816441        0.17409666341690        2.02881320558664
H           -2.95830153767758        2.57660976190051       -1.87320745724608
H           -1.53611899570450        3.34689521683587       -1.15509733272634
H           -1.78918978685464        0.34576228878702       -1.66913492911062
H           -1.06888492218878        1.51080095291999       -2.78815597015885
H           -0.68325715572245        1.73441290537737        0.82589048572130
H            0.71047611480437        2.04037699229267       -1.03013917489897
H            2.08645778385776       -0.64517261036164        0.67600735764675
H            2.31255701280835        0.99940028162099        0.06729421833453
H            2.79147419407078        0.05857912111457       -2.20571870513912
H            2.69286369832495       -1.57738436971295       -1.53472968625169
H            4.63858722815733        1.55722161739119       -1.57430315878865
H            6.93809089023499        1.75745029015260       -0.78857419534712
H            8.66592231692679        1.80132217198325        0.81870005909294
H            9.21759908794026        1.13510619094497       -0.74454917791301
H           10.05042800217380        0.68259937322280        0.76383595607962
H            7.05698923071024       -4.23356009405549        1.66598192016215
H            5.44114719613706       -3.49937645854616        1.80273417292469
H            6.02396721054350       -4.09826114596201        0.22230047416151
H            4.40950956870967       -2.40053606900235       -0.02075435542409
H           -0.24337446324058       -1.54576653206966       -1.75070484807014
H           -1.04322637138705       -1.17372383012485       -0.20594165538024
H            0.50537303429052       -2.01425884635667       -0.21920905312314
H           -4.59871720495174        3.08433391998456       -0.25605369975083
H           -3.79163385837156        3.05224541613037        2.67210800909536
H           -4.90026203086108        1.90812360724634        1.90596365544782
H           -5.33921352937077        3.61645748404934        2.02816591268926
H           -2.58887043761086        4.81550020563055        1.24751487128193
H           -2.96355744825344        4.93298248742401       -0.47683227207582
H           -4.19280850684736        5.31643531249090        0.72357774360088
H           -0.68561496204694        2.99408051155826        2.76919547377682
