72
 energy: 71.569355661430 xtb: 6.6.1 (8d0f1dd)
N           -1.57305514768387        3.03264818513317        2.24439850955764
C           -1.56412719314441        2.34387065155355        1.20168886565088
C           -2.70533063031363        2.21355337976232        0.23529023709832
C           -3.26491822686663        0.80503975544866        0.30980065351916
C           -4.23419329932517        0.37001184168236       -0.60043487295962
C           -4.75180541607998       -0.91325848359454       -0.56977700474462
O           -5.71914090806161       -1.34562950957987       -1.43725833482444
C           -6.30613439037009       -0.42949944886647       -2.31988689849690
C           -4.27463809232551       -1.90661425267307        0.40681828143102
O           -4.61810042236665       -3.10530054505477        0.52205372842919
C           -5.08619483620937       -5.74373471330720        1.97212517637533
C           -3.30759755592983       -1.37459726973561        1.31282568688030
C           -2.83386640776529       -0.09287689967893        1.27781139389128
C           -2.10724335931620        2.46435725433898       -1.17550953495075
C           -1.23696009030771        1.31578218825125       -1.73253755590041
C            0.09225577693733        1.18117953219466       -1.09550800634579
N            0.61520673844255        0.04524313470510       -0.65251862822149
C            1.99512776014709        0.00131922373264       -0.21556716607955
C            2.93879924957873       -0.53710406210303       -1.30917167274279
C            4.37022427708544       -0.43346716550348       -0.85071976343964
C            5.09175908271417        0.72625829451071       -1.05639080101683
C            6.40224246030146        0.83811900593642       -0.61194523949916
C            7.01140264999216       -0.21257396941194        0.04831656102253
O            8.28324988741485       -0.21740225332124        0.52213274738333
C            9.08566890035461        0.92018447696135        0.32003274021703
C            6.28005046268289       -1.40566659190980        0.26753662579805
O            6.95670131094629       -2.38195720710490        0.92455784986986
C            6.31952044268404       -3.61288886585293        1.15841338864772
C            4.97491611055610       -1.49637220666432       -0.18042186833120
C           -0.08512038594953       -1.21753586256077       -0.73337152975770
C           -3.83674858309603        3.24115545184485        0.51625461296864
C           -4.51817239502274        2.96265528454261        1.85467760437915
C           -3.34786348963288        4.68912411443403        0.48348860637670
H           -4.58712854537206        1.08330352869375       -1.33787789534522
H           -6.75838490699498        0.42432203946335       -1.79984869891113
H           -7.08994368758972       -0.98634237142877       -2.83837390781560
H           -5.58947957801691       -0.05038049177574       -3.05977435180423
H           -5.37825763226149       -5.36079669951988        2.90763626437231
H           -5.81700064773478       -6.08960791085681        1.28391966598031
H           -4.08776456804560       -6.05946868128380        1.87087579046536
H           -2.95280052550448       -2.05427853859517        2.07546131076695
H           -2.12919881405305        0.21632998361715        2.03549419281583
H           -2.93400600258029        2.62520440323098       -1.87125117578351
H           -1.50462659830610        3.37509051652836       -1.14378576053727
H           -1.78760624833002        0.37953326390015       -1.68437421605854
H           -1.06391106439082        1.55767563053698       -2.78984491061128
H           -0.68139306879201        1.75740519662133        0.87726718993863
H            0.73641287557395        2.04703796027084       -1.05030194653522
H            2.07084850482536       -0.63883816380540        0.66588293133145
H            2.32042916863836        1.00629547688512        0.06305956713480
H            2.79634941687329        0.05707517390060       -2.21333781459704
H            2.68988436059582       -1.57463563186809       -1.53441576819334
H            4.64218834069284        1.55862480815847       -1.57729210454225
H            6.93785933097064        1.75633999055647       -0.79211632658376
H            8.66977914497598        1.80117852559651        0.81938617172794
H            9.22134135156331        1.13401695114580       -0.74488783574060
H           10.04953054798405        0.67741172757093        0.76426695885645
H            7.05868275646386       -4.23002965669961        1.66635242096068
H            5.44229152256238       -3.49821640443653        1.80381172194848
H            6.02540508768967       -4.09986936919050        0.22299540788964
H            4.41088241147452       -2.40262268102544       -0.02267338927396
H           -0.24585161379197       -1.51699471402823       -1.77179777177697
H           -1.05273565916245       -1.15455561052802       -0.22901533471354
H            0.49560831165834       -1.99519363731413       -0.24090807861267
H           -4.58456437498981        3.11832469463294       -0.27587657363171
H           -3.80286921465668        3.09304808379716        2.65904571253389
H           -4.90771229877271        1.94900153084276        1.88715585796697
H           -5.34147464808341        3.65918166117427        2.00069015712807
H           -2.58631464069714        4.84825710590524        1.24084848697396
H           -2.94336751821286        4.96355994483896       -0.48834884293079
H           -4.18209362391699        5.35177382307309        0.69920849690944
H           -0.71404065212622        3.04903729945936        2.78699774484670
