72
 energy: 71.034798194248 xtb: 6.6.1 (8d0f1dd)
N           -1.56511844728578        3.07219380637729        2.22411841968059
C           -1.54801331279310        2.36631150633406        1.19209603733543
C           -2.69274019109417        2.24440552230600        0.23017955550781
C           -3.25894489853502        0.84138983913687        0.30012297214812
C           -4.22879861412817        0.41663453503361       -0.61573999202167
C           -4.74135449847428       -0.86506358000131       -0.60167884964992
O           -5.71020680950647       -1.30565250712750       -1.45932274485965
C           -6.29828042225728       -0.38800996066142       -2.33568367016838
C           -4.25948868571060       -1.84962346477163        0.36778624129755
O           -4.58895784562310       -3.05000693402078        0.45142339406948
C           -5.15558830597948       -6.09134148158333        2.11136618140683
C           -3.30307249934420       -1.33142954713524        1.29597422935007
C           -2.82678912588215       -0.05324507774370        1.27339606039388
C           -2.08680469799095        2.49876556161723       -1.17263168610940
C           -1.23233810868530        1.34250740738895       -1.73090646348101
C            0.09280183135584        1.19346001592830       -1.09795832178924
N            0.61283419930905        0.05059070773553       -0.65246015014179
C            1.98980361739064        0.00857799270661       -0.21812993836059
C            2.93395890748374       -0.53295578747314       -1.30774697622557
C            4.36431188058525       -0.43000756004806       -0.84720555878448
C            5.08729997673995        0.72833072465179       -1.05583278825715
C            6.39853735421074        0.83949840087489       -0.61343062715483
C            7.00708225839959       -0.21144499791547        0.04687315215599
O            8.27960817503384       -0.21772763302265        0.52019627236378
C            9.08348820341529        0.91819638871545        0.31897143198948
C            6.27590651826377       -1.40331918744558        0.26682075653712
O            6.95534132385267       -2.38010734086813        0.92181103199980
C            6.32021843673292       -3.61146221553174        1.15825116264797
C            4.97014407368644       -1.49348710670628       -0.17886070242833
C           -0.09718222376290       -1.20451154716346       -0.74817516459332
C           -3.82447991106496        3.27475991233881        0.50367347677023
C           -4.52037613850451        3.00121432220523        1.83533582391431
C           -3.33479953886703        4.72208950672506        0.47017858527053
H           -4.58345074688370        1.13104182986184       -1.34879395139784
H           -6.75079420229117        0.46135311753277       -1.80753297722048
H           -7.07743285860525       -0.94597320876358       -2.85249566431619
H           -5.57991908150353       -0.00557222949917       -3.07280995852402
H           -5.47397570997876       -5.70554300632992        3.04726512454017
H           -5.87757146066164       -6.33249667509512        1.36864519712991
H           -4.15592896110164       -6.42230867899843        1.98853266666834
H           -2.96695582642455       -2.03502925658164        2.04320944360476
H           -2.11953919252693        0.25639946660611        2.02971849139669
H           -2.90859058828938        2.67313723214085       -1.86911087430842
H           -1.47753905377466        3.40564379251654       -1.13141521633764
H           -1.79754146889440        0.41338551096700       -1.69482430896887
H           -1.03683112642530        1.59138766992283       -2.78074197660923
H           -0.66288363283374        1.78532027278892        0.86492458423230
H            0.72354342322056        2.06870670351422       -1.04168290747031
H            2.05700934255500       -0.63074359057877        0.66512621897099
H            2.31798415194775        1.01382138780003        0.06073405409865
H            2.79962259347612        0.05511795848297       -2.21815268811688
H            2.68415056998790       -1.57126119575814       -1.52975626124234
H            4.63792114221922        1.56110410139584       -1.57654653848681
H            6.93558605525101        1.75630324794167       -0.79582924740093
H            8.66873788516492        1.80102579624511        0.81682152768450
H            9.22209569022376        1.13257105195117       -0.74587524655395
H           10.04677079691385        0.67374516641872        0.76404367429370
H            7.06117412432876       -4.22704282821365        1.66598188158089
H            5.44303627386039       -3.49875748665534        1.80431266108028
H            6.02481294549297       -4.10125259847663        0.22433147220932
H            4.40673863227428       -2.40028563728114       -0.02072865150891
H           -0.24985650758287       -1.49131525040171       -1.79076761728873
H           -1.06727330292154       -1.13921194462802       -0.25032278493326
H            0.48589004944245       -1.98095472649861       -0.25992786833283
H           -4.56466436930910        3.15020677463124       -0.29531566757235
H           -3.81649971829189        3.13283874732627        2.64969656529888
H           -4.91461280132770        1.98938080902924        1.86688422989912
H           -5.34298664795448        3.70070088189254        1.96970646181092
H           -2.58215649435110        4.88386463292192        1.23564145127389
H           -2.92273980926231        4.99583869981482       -0.49851347886634
H           -4.17119404554740        5.38455821745200        0.67541833318706
H           -0.73137836523881        3.10499179569901        2.80507931706818
