  25
        -42.15169786
 C          3.2116246641        1.1415396927       -0.1287878435
 N          2.2404826912        0.0807002713       -0.0665708618
 C          2.5079966181       -1.2088111728        0.0434795038
 N          1.3569420577       -1.9115359340        0.0926009034
 C          0.3068006368       -1.0377001161        0.0056581346
 C          0.8714877213        0.2457470594       -0.0828995977
 C          0.1324219568        1.4891343969        0.0149042311
 O          0.5962663135        2.6049259199        0.0608628754
 N         -1.2531545867        1.2116115369        0.1080324587
 C         -2.1343773038        2.0555535251        0.4664593869
 C         -1.9169397940       -0.3571787351       -0.6118958157
 O         -3.0936252402       -0.4278027631       -0.3500502200
 N         -0.9882202687       -1.3299145489       -0.0054050707
 C         -1.5280837423       -2.5942774693        0.4349827598
 H          3.6848529907        1.2773903094        0.8448712404
 H          3.9810102756        0.9047432414       -0.8623868619
 H          2.7121274847        2.0692068307       -0.4015570658
 H          3.4895058273       -1.6388967941        0.0885177818
 H         -1.8888746606        3.0737901750        0.7416298223
 H         -1.5334645638       -0.0678972767       -1.6084275598
 H         -3.1613021967        1.7094618380        0.4808282183
 H         -1.0632595300       -2.9015473152        1.3714226897
 H         -1.4015999533       -3.3737770393       -0.3198594213
 H         -2.5959488037       -2.4399871719        0.5965368561
 H          1.2848202047       -2.9152183920        0.1800238151
