  72
        -99.25062813
 N         -1.7230315815        2.7866106506        2.4674286100
 C         -1.7236426877        2.1264973629        1.4075213168
 C         -2.8969104996        1.9995184500        0.4842985491
 C         -3.4187289201        0.5739624788        0.4734889404
 C         -4.3989094219        0.2246682937       -0.4255232498
 C         -4.9465481498       -1.0270036108       -0.5253020613
 O         -5.9054960285       -1.3749457006       -1.4092262223
 C         -6.3813242124       -0.3666134509       -2.2297920087
 C         -4.4753047262       -2.0455451880        0.3576653992
 O         -5.0447149733       -3.2543790174        0.1998675117
 C         -4.6976406766       -4.2999030914        1.0783730249
 C         -3.4949718290       -1.7078142131        1.2814847596
 C         -2.9761206832       -0.4205396762        1.3448944309
 C         -2.3954727139        2.3434106127       -0.9421969021
 C         -1.5038438883        1.2656861971       -1.5832679355
 C         -0.1524171092        1.1757711705       -0.9924557324
 N          0.4872017372        0.0518225518       -0.7082494389
 C          1.8760232635        0.0713825221       -0.3123038837
 C          2.8079160863       -0.3490448058       -1.4651019801
 C          4.2399806358       -0.2458482587       -1.0199675901
 C          4.9307226892        0.9493276552       -1.1421237846
 C          6.2398614574        1.0610704031       -0.7012063814
 C          6.8853423858       -0.0230907547       -0.1230968889
 O          8.1480783627       -0.0298431033        0.3389462264
 C          8.9283183834        1.1385697247        0.2279716417
 C          6.1839844644       -1.2545466699        0.0076604358
 O          6.8855622553       -2.2549404654        0.5740857388
 C          6.2893208284       -3.5219936286        0.7181119080
 C          4.8742655755       -1.3408865542       -0.4386522856
 C         -0.1445189096       -1.2401454975       -0.8365093171
 C         -4.0964600324        2.9198016342        0.8545133835
 C         -4.6885891698        2.5513122740        2.2126602751
 C         -3.7458033950        4.4033436040        0.8295371803
 H         -4.4000057176        0.3475259674       -3.5386168340
 H         -6.6895334131        0.5207692989       -1.6698468746
 H         -7.1859091925       -0.7745527177       -2.8345956967
 H         -5.5095291014       -0.0086736040       -2.9411761570
 H         -4.9232642830       -4.0406040330        2.1168181560
 H         -5.3079755872       -5.1486447928        0.7760903196
 H         -3.6390883283       -4.5638100719        0.9883409949
 H         -3.1297719919       -2.4479241791        1.9757943561
 H         -2.2382143589       -0.1875965674        2.0989535531
 H         -3.2715303264        2.4629012706       -1.5795508951
 H         -1.8549398496        3.2900182716       -0.9152184745
 H         -2.0231451758        0.3094198250       -1.5639905674
 H         -1.3795134645        1.5518228247       -2.6359159962
 H         -0.8354830490        1.5917152409        1.0159043461
 H          0.4173631078        2.0904414079       -0.9083698633
 H          2.0176322964       -0.6067581375        0.5339267135
 H          2.1470198812        1.0791075598        0.0091255951
 H          2.6335955029        0.3109414843       -2.3165050677
 H          2.5805110319       -1.3715501033       -1.7682272937
 H          4.4540144034        1.8045717788       -1.5964050097
 H          6.7532570533        2.0014055892       -0.8162779464
 H          8.4929722562        1.9661457218        0.7962796147
 H          9.0538134597        1.4379306673       -0.8167622803
 H          9.8984819994        0.8827786653        0.6493459138
 H          7.0499105942       -4.1525931579        1.1742292679
 H          5.4136521022       -3.4812935301        1.3738960652
 H          6.0034042034       -3.9432803990       -0.2506088808
 H          4.3363506142       -2.2718488003       -0.3504003985
 H         -0.3563202275       -1.4730967973       -1.8818595442
 H         -1.0827610631       -1.2631739349       -0.2765032232
 H          0.5169028495       -2.0044137755       -0.4369318617
 H         -4.8591310697        2.7254332549        0.0899159463
 H         -3.9663659819        2.7446806708        2.9995969745
 H         -4.9745709569        1.5027070972        2.2449954981
 H         -5.5741699549        3.1528994725        2.3993394018
 H         -2.9664715781        4.6178611597        1.5548869554
 H         -3.4193395293        4.7267654626       -0.1550482582
 H         -4.6257672075        4.9831011530        1.0950930138
 H         -0.8643540657        2.8251417445        3.0072068096
