25
 energy: -42.136032096312 gnorm: 0.002311414722 xtb: 6.6.1 (8d0f1dd)
C            3.90973849505202        2.87043722984771        0.17756617783513
N            2.20892176017822       -0.65160375198434       -0.09868491681826
C            2.26330899726565       -1.94820789733361       -0.14302330628332
N            1.01772599068754       -2.51990167626163       -0.13490478080776
C            0.13077438558938       -1.49493621639340       -0.08316609413056
C            0.89507320664199       -0.32111603462630       -0.06200124737322
C            0.25846460267368        0.97515365037612        0.00038259845693
O            0.82138498698179        2.04696370304738        0.02335002898713
N           -1.13299043892292        0.86938729424425        0.03369332931093
C           -1.90439245325272        2.10175749425979        0.09969424380928
C           -1.89708845800467       -0.28505019542978        0.01394035134145
O           -3.09816568749809       -0.25234319137459        0.05167716354326
N           -1.21280315459058       -1.51117032548271       -0.05339360376587
C           -1.97637792064070       -2.74064220745208       -0.07853330846895
H            4.29254461170225        3.08929050348899        1.15660934800554
H            4.56908531704981        2.90771473453851       -0.67005712533009
H            2.86836654541182        2.62328419307665        0.04857773789057
H            3.17032713264396       -2.51786304411456       -0.18182496265889
H           -1.21359488612434        2.94013884481544        0.05068979815384
H           -2.61167938442521        2.13876941431880       -0.72946763988222
H           -2.47293757692846        2.13490075097272        1.03017006010332
H           -1.72236128676130       -3.36368519123961        0.78049163770285
H           -1.78509268040826       -3.28849535205886       -1.00248145311115
H           -3.03243884699397       -2.47702314617858       -0.03025415521246
H            0.81463825677445       -3.50752104145502       -0.16787826339798
