72
 energy: -99.598071435655 xtb: 6.6.1 (8d0f1dd)
N           -1.97031484726325        3.30959327517070        2.35062057371151
C           -1.79455294080120        2.47727714066742        1.42237895064590
C           -2.72629355989216        2.22268225694166        0.26335355912551
C           -3.22649158985210        0.78523901537740        0.36788448103842
C           -4.04022121870122        0.26205099389290       -0.64091631955671
C           -4.53728549716495       -1.02658870722037       -0.57766731905623
O           -5.34830625193210       -1.59973627761449       -1.51247004610841
C           -5.84099903996064       -0.79568754715186       -2.55763529941556
C           -4.21066607445955       -1.85230537878711        0.52030226292208
O           -4.73060227730205       -3.10952139213455        0.49452909056516
C           -4.47454291022553       -3.96777702630064        1.57317966849355
C           -3.41963007888944       -1.33976238521128        1.52355396041952
C           -2.94823843574467       -0.03725135339758        1.44696808410767
C           -1.91848100517704        2.41370145221016       -1.06862904851176
C           -0.96944731418000        1.25695397029899       -1.48818572079262
C            0.22575619564211        1.02443346554594       -0.62610815312373
N            0.42581035336944       -0.09627866881219        0.05475250491499
C            1.70036852888646       -0.18646086255107        0.73897347128687
C            2.67224341024495       -1.03340708539157       -0.00582200204493
C            4.04356638885163       -0.68621261285526       -0.06230903890235
C            4.61268355807794        0.60537921208628        0.00136176786619
C            5.97764740070333        0.80646032144707       -0.00272662852194
C            6.82154547337648       -0.27062181280317       -0.13853034878806
O            8.14993669048209       -0.16193033785867       -0.37644531328839
C            8.78578081164706        1.07680577601729       -0.18356024568342
C            6.31399936700524       -1.58372105501873       -0.15976260767361
O            7.22113837560371       -2.59975205679394       -0.17434191507704
C            6.70148816135977       -3.89901261797781       -0.27756056956192
C            4.95815144954675       -1.75926069227198       -0.14962243310193
C           -0.13063416955386       -1.29974682854853       -0.15402418783454
C           -3.97078657114925        3.16625671547918        0.29648966981541
C           -4.79944685879881        2.94035702552592        1.57181765512837
C           -3.55605101241707        4.63266897361294        0.20253287787095
H           -4.29597565039235        0.88126157324315       -1.48530311412344
H           -6.37617512250008        0.08981944476516       -2.19015164718603
H           -6.53076032238182       -1.41764877461815       -3.12869754197761
H           -5.03152390767451       -0.47067142195224       -3.21308940378556
H           -4.83891815262138       -3.55652402746692        2.52005697953006
H           -5.00983194808346       -4.89639106015650        1.36155259576424
H           -3.40290243993094       -4.17637038268449        1.65617669196702
H           -3.14278207654539       -1.95453260197567        2.36449088541290
H           -2.33171026852425        0.31786699277344        2.25146118749646
H           -2.65936596445041        2.59376945015388       -1.86343897877864
H           -1.33554401033992        3.32357169081666       -0.97755495335305
H           -1.54873717274085        0.34020493407017       -1.57736652752200
H           -0.59921549617266        1.49798911130202       -2.48944030421583
H           -0.91284350374055        1.83468088041830        1.41180407671297
H            0.66387094755952        1.90910096624708       -0.18641142617860
H            1.53870678234619       -0.62887311875408        1.73991404950270
H            2.08462809210609        0.82353784708526        0.87398679446841
H            1.73727278375069       -1.63641868861605       -1.97578844598380
H            2.48770565175811       -2.07868455024841       -0.05098511209509
H            3.99151899944323        1.47882263304635        0.02782326200890
H            6.40786067985139        1.80025763980533        0.03661506572323
H            8.66102333962825        1.42792616621674        0.81348090039111
H            8.35214337893785        1.83441427658985       -0.88415588471534
H            9.84888454266122        0.90740688945338       -0.31207229424670
H            7.55084131279040       -4.57508946902455       -0.23174678345957
H            6.06742018847492       -4.17909785020689        0.53708783190149
H            6.13627356968569       -4.00641840617562       -1.24837765910560
H            4.53747475934499       -2.74187557199869       -0.17685692051543
H            0.90049644955382       -1.73615670586144       -1.56783515788851
H           -1.14153450810814       -1.33072093266485       -0.52265893349342
H            0.04837323177148       -2.04816996185518        0.59357164912691
H           -4.59589293986394        2.93000670885665       -0.57510915391573
H           -4.16835754625509        3.15990850658631        2.42796220827168
H           -5.14137929317196        1.90879880723806        1.64592841544817
H           -5.67140469613134        3.59661837149965        1.57524177798628
H           -2.89147394072266        4.86848317275045        1.02374433636982
H           -3.04408614719603        4.83486818663610       -0.73770773483566
H           -4.42893228297277        5.27989106443410        0.26084713946949
H           -1.17913109505035        3.28652043749719        2.98442372685207
