  72
        -99.35784180
 N         -2.1421778560        2.0536590720        2.7330780184
 C         -2.1077064604        2.5323652194        1.5737067638
 C         -3.0522629323        2.1199751280        0.4748277319
 C         -3.5487091079        0.6894626084        0.4923589232
 C         -4.4821656771        0.2904862098       -0.4707095744
 C         -4.9480339255       -1.0121533091       -0.5389708118
 O         -5.8535954045       -1.4721635663       -1.4250544918
 C         -6.4501750329       -0.5787598131       -2.3353596591
 C         -4.4577283652       -1.9798051468        0.3821379376
 O         -4.9525257675       -3.2224012511        0.2397284859
 C         -4.5515510511       -4.2282400521        1.1415170219
 C         -3.5348874953       -1.5764736278        1.3357010077
 C         -3.0928552689       -0.2633529366        1.3928518182
 C         -2.4116249201        2.4299737410       -0.8959423512
 C         -1.4457770198        1.3477583863       -1.3839879244
 C         -0.2437466114        1.1529195758       -0.4582008399
 N          0.6228517502        0.0954826933       -0.9201918095
 C          1.9971600810        0.1415568914       -0.4823366439
 C          2.9503417820       -0.3639824963       -1.5827656051
 C          4.3719051034       -0.2773502015       -1.1128539163
 C          5.0811421506        0.9120546234       -1.2204597128
 C          6.3790875702        1.0131750778       -0.7486748877
 C          7.0018419739       -0.0767872245       -0.1531101731
 O          8.2506404579       -0.0925489248        0.3435572832
 C          9.0347961631        1.0764281235        0.2784114925
 C          6.2866125581       -1.3037415350       -0.0427816156
 O          6.9650054322       -2.3108484547        0.5369092177
 C          6.3554520607       -3.5738557193        0.6643146753
 C          4.9858454513       -1.3769917655       -0.5203942715
 C          0.0165864698       -1.2154004565       -0.9162369528
 C         -4.3013698069        3.1007730874        0.7121643057
 C         -5.1246425065        2.6313959272        1.9073486814
 C         -3.8494234072        4.4823941710        0.8648498731
 H         -4.8567494605        1.0125901433       -1.1775976059
 H         -6.9828059456        0.2248492545       -1.8175439378
 H         -7.1626661131       -1.1734343275       -2.9037409096
 H         -5.7121036139       -0.1492839878       -3.0202391860
 H         -4.8127290914       -3.9690629637        2.1716808849
 H         -5.0963628430       -5.1222429404        0.8447098278
 H         -3.4761341067       -4.4201004419        1.0742290716
 H         -3.1532978160       -2.2835985014        2.0542333716
 H         -2.4006679112        0.0178812553        2.1680653353
 H         -3.1951927479        2.5373244027       -1.6465682268
 H         -1.8869063129        3.3852066637       -0.8389359438
 H         -1.9874935834        0.4075158518       -1.4787776599
 H         -1.0788198283        1.6264663198       -2.3731241745
 H         -0.6089280571        0.9378405076        0.5603496051
 H          0.3333817033        2.0796848027       -0.4243225048
 H          2.1521844859       -0.4564240172        0.4289613529
 H          2.2614984615        1.1749754013       -0.2504137510
 H          2.8065812989        0.2529626164       -2.4702470767
 H          2.7036944012       -1.3938777087       -1.8401278124
 H          4.6204766915        1.7699590861       -1.6855647731
 H          6.9044690961        1.9485593576       -0.8514696300
 H          8.5738282999        1.8983490493        0.8345009878
 H          9.2062741200        1.3861049133       -0.7567056017
 H          9.9855166407        0.8165724488        0.7399150537
 H          7.0973376812       -4.2092370526        1.1442849759
 H          5.4600480922       -3.5257782723        1.2918962239
 H          6.0963178025       -3.9933620064       -0.3125724775
 H          4.4366475877       -2.3022205368       -0.4426723285
 H         -0.5766107982       -1.3581264317       -1.8203009620
 H         -0.6405997262       -1.3512219947       -0.0480275606
 H          0.7852657349       -1.9828694985       -0.8926396205
 H         -4.8992505470        3.0182865943       -0.2034084524
 H         -4.4895853517        2.4966133589        2.7799770829
 H         -5.6113157871        1.6841215152        1.6918042115
 H         -5.8889304742        3.3684212799        2.1398790526
 H         -1.4642673061        3.3667162274        1.2807714705
 H         -3.5458506786        5.0649143560        0.0155557646
 H         -3.8217999858        4.9434625504        1.8339867966
 H         -1.5162296686        2.4600218290        3.4201758966
