  25
        -42.12624439
 C          3.2319821594        1.0612701924        0.1293854255
 N          2.3973265947       -0.1015491889        0.0052111308
 C          2.7921254205       -1.3540403608       -0.2088407717
 N          1.7240084662       -2.1950945163       -0.2155331632
 C          0.6206172972       -1.4426528772        0.0067085788
 C          1.0329258962       -0.1161287772        0.1472130432
 C         -0.1259310962        0.7135075602        0.3608265722
 O         -0.2459704161        1.9176420173        0.4985869610
 N         -2.4424388417        2.9668096422       -1.4724358149
 C         -2.6053267829        2.9572555799       -0.2442972052
 C         -1.2684647868       -0.3133127637        0.3586803704
 O         -2.4426966531       -0.1121348001        0.5208828090
 N         -0.7149384042       -1.5917841000        0.1296974758
 C         -1.4961946714       -2.8004802244        0.0301800207
 H          3.5922447267        1.1595491961        1.1557084649
 H          4.0876618411        0.9885127515       -0.5392646760
 H          2.6445402022        1.9450463843       -0.1138204194
 H          3.8049770880       -1.6681897178       -0.3640041726
 H         -2.4148712207        3.7961030582        0.4306090246
 H         -2.1150277924        3.7918336685       -1.9631223765
 H         -2.9654073606        2.0458405857        0.2224821646
 H         -1.1821807478       -3.5262770262        0.7811604867
 H         -1.4071152022       -3.2370024800       -0.9656253929
 H         -2.5355909244       -2.5281090988        0.2082688218
 H          1.7756628818       -3.1932553943       -0.3625517692
