72
 energy: 71.339862479879 xtb: 6.6.1 (8d0f1dd)
N           -1.63061921605651        2.93000992061972        2.25578840198638
C           -1.66735139146402        2.19315843745848        1.24483907088076
C           -2.82729471187596        2.07936665632506        0.29697648395035
C           -3.40000344655410        0.67384792800286        0.38080916257389
C           -4.36426376799010        0.26072679728998       -0.54202852564034
C           -4.91200705706894       -1.00762664247908       -0.49390904766490
O           -5.85417996563836       -1.48644278482541       -1.34628844750837
C           -6.40583906464602       -0.61889123248825       -2.30560280174529
C           -4.47953238410959       -1.91857789223223        0.50013252282361
O           -5.05576137486492       -3.14613525166594        0.45727576825251
C           -4.71097358920696       -4.08868536955712        1.44282233878474
C           -3.52541900048049       -1.50515216483602        1.41135573429768
C           -2.99598779086733       -0.22061651783023        1.35334064586816
C           -2.26374458370980        2.33351823143799       -1.12526942071890
C           -1.43920921085598        1.17556184815374       -1.72922534960024
C           -0.09948230899809        0.98113485085193       -1.10827690760150
N            0.43551993926214       -0.16538981096947       -0.68247653908723
C            1.81714289294131       -0.22019178596123       -0.26105978492155
C            2.77195428433649       -0.79056895567393       -1.35348836351671
C            4.19755541855939       -0.54330055054901       -0.98971301885443
C            4.82035214195333        0.66955673870368       -1.29335092193184
C            6.11539693938519        0.95337470326928       -0.93752805127123
C            6.95473526859919        0.03929771211242       -0.22548452266572
O            8.13583453593367        0.26314071799786        0.09960271888968
C           10.89150270597528        0.91361601984022        0.98624382301666
C            6.26378349961148       -1.22966821378646        0.07980879189094
O            7.02722683242500       -2.14219329535291        0.76668115240833
C            6.48243147989929       -3.40862412537790        1.07816904658742
C            4.95528852154462       -1.48632758428344       -0.28829796969918
C           -0.28365623379145       -1.41387095865926       -0.75221152048748
C           -3.96260547645749        3.09631986283487        0.60194216847177
C           -4.60252957467590        2.81010084386492        1.95828996838017
C           -3.49225957299270        4.54771382044543        0.55254134615659
H           -4.69800093010827        0.94893674690045       -1.30114370302083
H           -6.87656380058232        0.25163867162179       -1.83736736563397
H           -7.16447247869450       -1.20200293785783       -2.82437982268505
H           -5.65425474897871       -0.28260583935884       -3.02826745986090
H           -4.95886893211415       -3.72927783302825        2.44641086036989
H           -5.30455900454430       -4.97431620026502        1.22084944686859
H           -3.64645724894090       -4.34668197968470        1.39973211301873
H           -3.19194207186465       -2.16854805148300        2.19293824836376
H           -2.28033543607434        0.07882341754638        2.10340801496020
H           -3.10070782132429        2.52586939647489       -1.80205670437633
H           -1.64260557970362        3.22929893726211       -1.09339747742212
H           -2.02473484127558        0.25900285238322       -1.68700264099715
H           -1.29630908757454        1.42904496891891       -2.79284323516276
H           -0.80056429364698        1.58639242853332        0.93441178504428
H            0.57343365839295        1.83301050502726       -1.10661385711145
H            1.90233326081124       -0.84464821956883        0.63229057591843
H            2.15104525394489        0.79157371301921       -0.00667309697110
H            2.53584459048208       -0.27576702459024       -2.28608044339360
H            2.57183060968583       -1.85957911348934       -1.47552861444978
H            4.25762016380744        1.40808355648483       -1.84589606971233
H            6.56152313917143        1.90942237380586       -1.16534124298043
H           10.50376153670674        1.75410579916819        1.51117363400112
H           11.06232775798199        1.09584075554513       -0.04917669811655
H           11.23838326901495        0.02853828931950        1.48789415913655
H            7.26221221101577       -3.96642166981069        1.59736200611742
H            5.61073162674328       -3.34083356324027        1.74087778524558
H            6.20246705636243       -3.96726825998564        0.17750128117853
H            4.49034182553801       -2.44102947841772       -0.05938409828721
H           -0.42718058791473       -1.72467573644627       -1.78992537452455
H           -1.26078656925935       -1.30598328712028       -0.27725184695920
H            0.27601401925153       -2.19045844723782       -0.22895549007239
H           -4.72684415518297        2.96149045319222       -0.17292630625732
H           -3.87593753154846        2.95279344550579        2.74934185790226
H           -4.98182248629353        1.79248619958898        2.00415969713179
H           -5.42983901351078        3.49417076366630        2.12872062287262
H           -2.71626201142804        4.71161988307628        1.29163884686954
H           -3.11774735082873        4.81538353891383       -0.43117876652779
H           -4.32668885551110        5.20602206198872        0.78317927307863
H           -0.78171805115071        2.92684723591593        2.81607739374081
