72
 energy: 71.211007855841 xtb: 6.6.1 (8d0f1dd)
N           -1.62923262149429        2.93161197731868        2.25232962066829
C           -1.66137829497471        2.19392701291795        1.24094402188064
C           -2.83026268518335        2.08038692353299        0.29967644519877
C           -3.40428719161351        0.67441129544024        0.38435071952429
C           -4.36775033777116        0.26080936890322       -0.53973066382618
C           -4.91597072576108       -1.00710361736842       -0.49130949992608
O           -5.85535646524977       -1.48818890157221       -1.34667410805597
C           -6.40665759795396       -0.62038748902042       -2.30555199206081
C           -4.48495354828480       -1.91708367025412        0.50454139280613
O           -5.05993278672495       -3.14473510763049        0.46096163059849
C           -4.71430985814803       -4.08850271443474        1.44516517240233
C           -3.53205906951774       -1.50299626440019        1.41646579688160
C           -3.00214288686987       -0.21833893876363        1.35891081080009
C           -2.26585357304857        2.33588921027676       -1.12088082438026
C           -1.44814893656741        1.17337940293056       -1.72568068876959
C           -0.10264608567415        0.97067343147818       -1.11656775179832
N            0.42145727775479       -0.17406590373761       -0.68734679345980
C            1.80368426135443       -0.23232699078317       -0.26750956598136
C            2.75822727923487       -0.80661137864239       -1.35680939582531
C            4.18240489309075       -0.55175645362873       -0.99469513692526
C            4.79713982300416        0.66383855515554       -1.30644045074027
C            6.08978125500546        0.95335798236301       -0.95209460053293
C            6.93399278441465        0.04572786981122       -0.23816482616660
O            8.11380657384414        0.30134338286761        0.07425429660411
C           11.00976913480051        0.92223178940949        1.02543415748706
C            6.25317344824230       -1.22946211399097        0.07362568414257
O            7.03089097381371       -2.13107521027427        0.75884188703551
C            6.49232605767816       -3.39847355885045        1.07430821467259
C            4.94394074983046       -1.49150603022255       -0.29123640533335
C           -0.30189124243584       -1.41724582121714       -0.75940433054885
C           -3.96670813720962        3.09736987013231        0.60379062809517
C           -4.60831277132149        2.81227307136337        1.95946376027105
C           -3.49753396792201        4.54884797194860        0.55259432178302
H           -4.69943754540253        0.94950303654848       -1.29957302206046
H           -6.87843593457004        0.25031046808082       -1.83819592627504
H           -7.16446979090202       -1.20433756781799       -2.82458241845316
H           -5.65475706433541       -0.28416216171280       -3.02812796378205
H           -4.96377158993783       -3.73073780787500        2.44877254029797
H           -5.30639548181184       -4.97425478624133        1.22030950638255
H           -3.64947686208579       -4.34462936070937        1.40248093570248
H           -3.19948742904822       -2.16581389224935        2.19894118003361
H           -2.28782189680395        0.08027614969210        2.11059724030136
H           -3.10219220727188        2.53385162945441       -1.79645533029391
H           -1.64247357632827        3.23178151855514       -1.09078379415593
H           -2.03915460866100        0.26033355703795       -1.68812836130344
H           -1.30083620158710        1.43023027971368       -2.78393062822233
H           -0.80083514674956        1.58399418145336        0.91786330998587
H            0.56202481764788        1.82668947062528       -1.10289753353136
H            1.88503865853576       -0.85334953704998        0.62750464609414
H            2.14216172300595        0.77829074906344       -0.01373844526167
H            2.52256835834828       -0.29891364704233       -2.29389308883325
H            2.56397926778349       -1.87762640979505       -1.47152788057994
H            4.23436229434034        1.39852461959624       -1.86497892434768
H            6.53602132687877        1.91038257704265       -1.18692187870584
H           10.62150119619590        1.75888648730368        1.55510855322608
H           11.18168113835606        1.09824728980281       -0.00970220831056
H           11.33902950209293        0.02784527619202        1.52438002615053
H            7.27474201609945       -3.95095784057464        1.59426694627652
H            5.62093615085496       -3.33110095466832        1.73737351481109
H            6.21344836709314       -3.95965155266533        0.17488116768578
H            4.47832417108998       -2.44620255026733       -0.06047442833194
H           -0.44422150726375       -1.72535470008707       -1.79755151612321
H           -1.27881488438953       -1.30637911745348       -0.28520355448773
H            0.25636476717985       -2.19335516638733       -0.23584075506066
H           -4.73120324359146        2.96073124718832       -0.17089391686542
H           -3.88315913848342        2.95531932009998        2.75209159884889
H           -4.98801955717178        1.79471073991688        2.00586534033741
H           -5.43621963914513        3.49626299935079        2.12768466991779
H           -2.72244943060285        4.71625629025705        1.29228832172286
H           -3.12236426649719        4.81666894894613       -0.43102107807071
H           -4.33295971179788        5.20663192763161        0.78084160603781
H           -0.78708610555589        2.93882590958611        2.82323771128199
