72
 energy: 60.789661634754 xtb: 6.6.1 (8d0f1dd)
N           -1.61249308750047        2.89988459442754        2.26915010455471
C           -1.63124623644226        2.19562763432228        1.23064647735338
C           -2.79454846610155        2.07789811096888        0.28141902451445
C           -3.36672771285967        0.66996340689598        0.35946350396796
C           -4.34117760407771        0.25740589736899       -0.55233069425435
C           -4.89140728132381       -1.01076098747484       -0.50443321084556
O           -5.84963771825232       -1.48723471089644       -1.35309373812914
C           -6.40289805816367       -0.61352093800341       -2.30340478805169
C           -4.45359981676915       -1.92451403949999        0.47903952762995
O           -5.04065964602628       -3.15811595143444        0.44029646522501
C           -4.69307861549429       -4.09069041770274        1.43004359726132
C           -3.48812551466498       -1.51658018772817        1.38117185244242
C           -2.95587527615658       -0.23318560785874        1.32194115768046
C           -2.24305127487034        2.32278351296888       -1.15176672497272
C           -1.37106895461817        1.18787506009466       -1.72937130562516
C           -0.06404896876986        1.05974585469269       -1.03993524266418
N            0.50872488741995       -0.13416869172675       -0.62777630126236
C            1.89967986289749       -0.16059128408733       -0.22380707980875
C            2.84702276169138       -0.70225584425235       -1.32750185931335
C            4.29277842591372       -0.50202679311615       -0.94957920151617
C            4.94703800951790        0.68850638087957       -1.20419068400386
C            6.26446134471635        0.92173551330931       -0.80069965746025
C            7.07656921721052        0.01215102855436       -0.10028143923989
O            8.39935721660986        0.11251593031926        0.26493931015060
C           10.05957933516798        0.91370060903295        0.67625632694511
C            6.35742888688763       -1.23708578795181        0.15732501745239
O            7.03196301483234       -2.22883143321846        0.83653078146063
C            6.42491784892398       -3.47841388497474        1.10391657669791
C            5.04167798159005       -1.45371637300772       -0.26617824305967
C           -0.19164452244454       -1.38312571101521       -0.71000772081730
C           -3.93113150481577        3.08823948001423        0.59243527552304
C           -4.56518941179957        2.79606039707805        1.95018681074769
C           -3.45769116472532        4.53928376025210        0.55100753700453
H           -4.68283002119753        0.94892090431890       -1.30533570551628
H           -6.86565184429270        0.25742682166760       -1.82730782890109
H           -7.16850675672815       -1.18894365700836       -2.82027325525055
H           -5.65503236130981       -0.27337585324802       -3.02878359870744
H           -4.92987755725611       -3.72063573085276        2.43360833486502
H           -5.29369469631055       -4.97599514762472        1.22378347344753
H           -3.63012334932638       -4.36020567383391        1.38327597902144
H           -3.14657980358970       -2.18510034963453        2.15577630295027
H           -2.23038190694858        0.06346329924634        2.06242240262134
H           -3.08282795490878        2.47201931585109       -1.83351830316871
H           -1.64836241269289        3.23627877038187       -1.13753618205896
H           -1.93428771954378        0.25644661058387       -1.68193801822820
H           -1.18944967785630        1.41174009887765       -2.79377881399841
H           -0.76155520262711        1.62769350991519        0.83603308991064
H            0.62378573427031        1.90221833150742       -1.10526896027355
H            2.00371232890423       -0.79621242365248        0.66892721158306
H            2.20616170508379        0.86108085116466        0.03299966560188
H            2.62048702637032       -0.14788150277066       -2.24237371556162
H            2.61306696479862       -1.75621541795012       -1.49791695350930
H            4.40440216073913        1.46240429435878       -1.72801967702826
H            6.70186845816346        1.88126039268355       -1.01834293015133
H            9.80845400621923        1.80135455201850        1.23408589381630
H           10.37353020958159        1.15363280945428       -0.32747407532188
H           10.69921326301464        0.20084298468664        1.20881300396026
H            7.18593997714293       -4.06842842062089        1.61832129149400
H            5.54945356621374       -3.39910566861428        1.76119502971191
H            6.13626145214846       -4.01069996873165        0.18981639642189
H            4.56142335826738       -2.40128374559829       -0.04720387340120
H           -0.34010423499001       -1.69609272368419       -1.74858507629573
H           -1.16643353988371       -1.29556478068439       -0.22559430372515
H            0.38512960467551       -2.15158013101494       -0.19304231505612
H           -4.69691337240497        2.96151155022098       -0.18084204593363
H           -3.83094466834296        2.93564491394814        2.73246809461584
H           -4.94265937423927        1.77734664511931        1.99458142753316
H           -5.39085586468155        3.47963450687974        2.13014834868142
H           -2.67513086493190        4.68799729796606        1.28499126832747
H           -3.08779319308275        4.81033508135435       -0.43352121471704
H           -4.28664589784927        5.20086701899746        0.79387042817923
H           -0.73259809604408        2.86934176420715        2.77014995764182
