72
 energy: 68.905652936970 xtb: 6.6.1 (8d0f1dd)
N           -1.62474759006595        2.90678924741703        2.27347210548338
C           -1.64248157157763        2.19908864972932        1.23816926475348
C           -2.80075230378761        2.07910089298337        0.28476545835327
C           -3.37248851715060        0.67120440638273        0.36295369737310
C           -4.34513842223497        0.25823160291083       -0.55053306134505
C           -4.89544561091341       -1.00999172539000       -0.50259999274319
O           -5.85022522820968       -1.48605828461608       -1.35144974418976
C           -6.40360091049919       -0.61392842552311       -2.30416803096418
C           -4.45872052761569       -1.92368287078425        0.48285062985614
O           -5.04432632795913       -3.15576993472175        0.44399793793003
C           -4.69636947864789       -4.09041772075287        1.43249516271005
C           -3.49418792110888       -1.51456768623984        1.38577806109931
C           -2.96232427997251       -0.23089662764253        1.32649383004180
C           -2.24686472914807        2.32474346289570       -1.14774430713014
C           -1.38278268936054        1.18605793620702       -1.73122809267299
C           -0.06682879070928        1.04078857713297       -1.05570432892238
N            0.49444059000212       -0.13499788398635       -0.64060105245967
C            1.88612375233689       -0.17027811454093       -0.22921996115741
C            2.83344678411506       -0.71806288630360       -1.33367096875712
C            4.27721535616814       -0.51241725320065       -0.96180776346915
C            4.92514036940079        0.68588507860829       -1.22421851256685
C            6.23109066576844        0.93106356386489       -0.82568444343571
C            7.05262603352460        0.01553124646551       -0.11668370071632
O            8.32086944776595        0.14731381110330        0.16613936775985
C           10.26019047112922        0.93061073116439        0.75226190189345
C            6.33488407810126       -1.23625797609948        0.14846895602299
O            7.02836322590346       -2.21548445734772        0.82706709476861
C            6.43455982611660       -3.46828092020967        1.09995282710904
C            5.02719103639951       -1.46224470084369       -0.27318528524144
C           -0.20580798903624       -1.38849079659947       -0.71807322438337
C           -3.93734639145209        3.09008915076358        0.59380029552909
C           -4.57170167432650        2.79822029487850        1.95147427854679
C           -3.46369758132514        4.54084610195253        0.55111468767421
H           -4.68565730910946        0.94873449667286       -1.30482047632126
H           -6.86748351779708        0.25675387000871       -1.82925621542082
H           -7.16774946244290       -1.19021612431412       -2.82211814302884
H           -5.65437318043761       -0.27479128921776       -3.02843176826573
H           -4.93482010517800       -3.72232927481454        2.43611811920970
H           -5.29556888271272       -4.97600544765606        1.22388886246272
H           -3.63282886089934       -4.35727144558955        1.38615428911838
H           -3.15405315074611       -2.18185188334991        2.16189210029699
H           -2.23894709444344        0.06710162315013        2.06869511849626
H           -3.08655072661755        2.47989464016385       -1.82853485309792
H           -1.64824144860107        3.23512219720180       -1.13057410859832
H           -1.95078172155292        0.25812932377797       -1.68344252474063
H           -1.20664236786270        1.41265116267163       -2.79634343615465
H           -0.77022625226012        1.62561237350190        0.85589016947788
H            0.61744188297667        1.88862856469941       -1.11553302034054
H            1.98635818153422       -0.80681567107403        0.66180750299233
H            2.19761958698782        0.84941845709104        0.02685167310796
H            2.60281983748918       -0.16771383644243       -2.24977027457383
H            2.60219338822556       -1.77375151723170       -1.49692599102226
H            4.37633061434589        1.45191843370968       -1.75269274480260
H            6.67513628845697        1.88829494270733       -1.04174819454629
H            9.93371604617292        1.79352849857247        1.29249891509099
H           10.48915719399415        1.13838391154218       -0.27532109736770
H           10.79759368895834        0.14656317999245        1.27011266782866
H            7.19901035890131       -4.05273076014854        1.61502552070326
H            5.55946480603719       -3.39216675073167        1.75895842547524
H            6.14618714674603       -4.00586443399201        0.18879585883827
H            4.55667296795511       -2.41324299554566       -0.05208619470762
H           -0.35048209209925       -1.70131321671882       -1.75649910145237
H           -1.18121876752726       -1.30034804008046       -0.23586308225177
H            0.36962126633620       -2.15754904945947       -0.20024502547044
H           -4.70224571313308        2.96196335725935       -0.18001992571885
H           -3.83833047408227        2.93861803817934        2.73468611799847
H           -4.94912526911912        1.77959845267517        1.99614754146823
H           -5.39732514623277        3.48181617891821        2.13065349267775
H           -2.68232918925059        4.69072730178179        1.28619141234025
H           -3.09285173895884        4.81088301173823       -0.43327257693394
H           -4.29284725186010        5.20241588444563        0.79239928846652
H           -0.74530883764785        2.88196030313781        2.77887755037824
