72
 energy: 21.863510433816 xtb: 6.6.1 (8d0f1dd)
N           -1.57326167509762        2.86665336086117        2.25708866829923
C           -1.60271716414685        2.17190739080651        1.21039130063127
C           -2.77746522460915        2.07117608655799        0.27099080616899
C           -3.35066924482706        0.66369903123248        0.34873471174840
C           -4.32946813762466        0.25390637096104       -0.55912390602501
C           -4.87792286953536       -1.01423204999210       -0.51142560200804
O           -5.84082144977752       -1.49035033050412       -1.35754548579661
C           -6.40027159815517       -0.61387124957727       -2.30060426310341
C           -4.43650745586629       -1.92944845620596        0.46784919957188
O           -5.02557980481455       -3.16268562483484        0.43007509546014
C           -4.68372066121938       -4.09311854421516        1.42356016416541
C           -3.46847226892755       -1.52398482915791        1.36735174250342
C           -2.93548002026062       -0.24115284044304        1.30794818105551
C           -2.22984570775122        2.31484717975093       -1.16289676074193
C           -1.33547453184256        1.18862483643826       -1.71738577562803
C           -0.05056134386318        1.10406844688277       -0.98776544546207
N            0.55228817621751       -0.11047307031270       -0.59720990943655
C            1.93330096847807       -0.12300447163202       -0.20260130958582
C            2.88075621735149       -0.65353974355780       -1.31359748908014
C            4.32102535145495       -0.48270290463450       -0.91800521535708
C            4.99494890591956        0.70134149185262       -1.15285011857631
C            6.31562177747086        0.90216744010783       -0.73702398761814
C            7.08466890979583       -0.04129778516947       -0.04895881826497
O            8.45919272451933        0.03383432659267        0.41308845615166
C            9.68129929395946        0.89083020575532        0.54275740850656
C            6.35660496940678       -1.27734136405876        0.19504902535279
O            7.01726567332512       -2.27372027446247        0.86588732806765
C            6.39401647326524       -3.51862102168316        1.11950827014632
C            5.03838051387297       -1.46409584477855       -0.23812884481866
C           -0.14584755296150       -1.35912142310397       -0.68263871514500
C           -3.91154492769244        3.08349616675084        0.58872292601726
C           -4.54411343293464        2.78974172735353        1.94701945337985
C           -3.43828998882786        4.53491197310756        0.55037241611693
H           -4.67477722399022        0.94825609442613       -1.30770610454736
H           -6.86005318277988        0.25731658385094       -1.82070434180620
H           -7.17028473881996       -1.18836344282983       -2.81254522172660
H           -5.65878058340811       -0.27193529333535       -3.03163858757217
H           -4.91559273838453       -3.71767438190634        2.42650469917930
H           -5.29140629422958       -4.97414344405207        1.22075522219445
H           -3.62362682454727       -4.37125883047809        1.37533663871230
H           -3.12374615253885       -2.19491334734230        2.13841420408963
H           -2.20476226536436        0.05245253666913        2.04446337612514
H           -3.06825078329034        2.44617606455522       -1.84929982600327
H           -1.64905493488061        3.23794579475096       -1.15812837931326
H           -1.88859902056855        0.24955337085583       -1.67044098149795
H           -1.13409019339577        1.40427177089092       -2.77857308058317
H           -0.73606271285392        1.62904637155216        0.77577805046809
H            0.63466730818059        1.94009657889083       -1.06208363502509
H            2.04621391044671       -0.76054002174354        0.68671939372976
H            2.23445965834657        0.89845778870478        0.05859965106156
H            2.66441177981601       -0.08005071234532       -2.21842919732820
H            2.63348153147365       -1.70019414282734       -1.50407332987729
H            4.47221393547785        1.49295255130362       -1.67169600877886
H            6.77317579373032        1.85343896380346       -0.95101979803485
H            9.46339511920675        1.81455825101052        1.09652497833946
H           10.02558000124806        1.16968568169398       -0.46002551134122
H           10.47624577299183        0.33142478968774        1.07111081210943
H            7.14827277234800       -4.11923665841407        1.62975013762075
H            5.51841669767215       -3.43200008092017        1.77371583616581
H            6.10286877947968       -4.03608867985271        0.19846484102414
H            4.52209794624493       -2.39687333128040       -0.03849100134621
H           -0.30260683634178       -1.67424093276710       -1.72037739172750
H           -1.11938505242178       -1.28024472546081       -0.19180670418786
H            0.43911840846325       -2.12373215824944       -0.17060962374449
H           -4.68005170984229        2.96009535225612       -0.18269158471069
H           -3.80754692065241        2.92594356877039        2.72814927924549
H           -4.92222599609615        1.77110258230464        1.98971505311363
H           -5.36982931222339        3.47324065548959        2.12873302228388
H           -2.65169728666509        4.68285415210099        1.28088152661878
H           -3.07266477113550        4.81010952664575       -0.43486841444340
H           -4.26705571344718        5.19526833066552        0.79838546963123
H           -0.69228697111029        2.83087138954793        2.75375475778355
