72
 energy: 31.043434228309 xtb: 6.6.1 (8d0f1dd)
N           -1.58609663278293        2.88062665418435        2.26044609407375
C           -1.61095812626869        2.18012703946383        1.21735303969526
C           -2.78267658833607        2.07364381301176        0.27458891731182
C           -3.35590262933865        0.66613173039942        0.35219579241636
C           -4.33340817206700        0.25519487547782       -0.55677066681955
C           -4.88244467056288       -1.01295994888042       -0.50887465436917
O           -5.84445237585374       -1.48981219328156       -1.35651795893518
C           -6.40124355606411       -0.61378159779098       -2.30157675746315
C           -4.44217968002763       -1.92749922304684        0.47138170655583
O           -5.03070767478814       -3.16163063090424        0.43322784987575
C           -4.68665861711933       -4.09210513203931        1.42569281442957
C           -3.47513300483919       -1.52130204135957        1.37185569520941
C           -2.94243857076302       -0.23833808904084        1.31250425273608
C           -2.23469483419162        2.31744964362196       -1.15951925485613
C           -1.34755340314819        1.18877571220740       -1.72304056133009
C           -0.05740186082086        1.09310141993254       -1.00532285011465
N            0.53909115171870       -0.12183231779957       -0.60405998462890
C            1.92189131690974       -0.13637660065269       -0.20953159504233
C            2.87225818365741       -0.66947546328857       -1.31859869662880
C            4.31374583550266       -0.48909254743334       -0.92806622317113
C            4.98186110289052        0.69730071870043       -1.16824796108791
C            6.30328285228071        0.90926249227495       -0.75636696515261
C            7.09185756815488       -0.01836869931286       -0.06496507329776
O            8.48002108266877        0.07398176915034        0.38069818266334
C            9.77104141893907        0.88774743875378        0.57488465531581
C            6.36614450347966       -1.26034863540981        0.18377872446169
O            7.02474446644405       -2.25824128433640        0.85656313155189
C            6.40508976848528       -3.50550136878826        1.11484193653212
C            5.04610870577831       -1.45750581574439       -0.24667216628216
C           -0.16020151421112       -1.36830972704484       -0.69211407118755
C           -3.91806297952369        3.08488270004011        0.58981858199975
C           -4.55118813674014        2.79180552169046        1.94794883373694
C           -3.44490888063718        4.53628016515042        0.55059309440141
H           -4.67732802610903        0.94862265126738       -1.30699533080779
H           -6.86187125287597        0.25750284765286       -1.82292300938097
H           -7.16986699033733       -1.18833182061592       -2.81535835121278
H           -5.65748114927052       -0.27206902239826       -3.03052338186212
H           -4.92027420889412       -3.71840236510279        2.42890301019997
H           -5.29149450652468       -4.97506565120312        1.22227154072891
H           -3.62553087469612       -4.36734206879660        1.37805547307528
H           -3.13145538202612       -2.19155703160555        2.14405014678754
H           -2.21333088835537        0.05632964831226        2.05011083107262
H           -3.07381673661448        2.45516307575542       -1.84406512665267
H           -1.64885841083383        3.23729540555074       -1.15145494169174
H           -1.90333547483893        0.25184966294594       -1.67548682224392
H           -1.15380262854948        1.40732515367760       -2.78571832875106
H           -0.74451602920033        1.62756699388310        0.79610858313529
H            0.63129453524674        1.92880546988558       -1.07926926195872
H            2.03418569490659       -0.77401998310273        0.68069774905991
H            2.22434325198876        0.88548230067252        0.05040705309467
H            2.65099439028810       -0.10137524042083       -2.22594083670363
H            2.62768745469418       -1.71805709532031       -1.50310170703195
H            4.45154841328706        1.48284641303023       -1.68849839235502
H            6.74984046166731        1.86447358671966       -0.97362687583104
H            9.57462207186850        1.80941867961577        1.13698817713658
H           10.13929049310202        1.16624422388984       -0.41720662644294
H           10.53777795061665        0.28909253914168        1.11094454530815
H            7.16190031718675       -4.10249281267152        1.62623107787723
H            5.52993480390325       -3.42212874840132        1.77033488322126
H            6.11510035468853       -4.02819731710405        0.19629004500870
H            4.53841146801158       -2.39426743075051       -0.04058394883545
H           -0.31454479491817       -1.68227879743765       -1.73057460546621
H           -1.13427696976867       -1.28632941327184       -0.20343239546039
H            0.42167664214512       -2.13451929448370       -0.17839622991751
H           -4.68571496248761        2.96060121115432       -0.18229230845393
H           -3.81506821243855        2.92910788275562        2.72908487017058
H           -4.92900948904324        1.77307584738443        1.99131162365638
H           -5.37685784882065        3.47538145449207        2.12936961342793
H           -2.65949837758597        4.68383672427222        1.28216322969917
H           -3.07778093307404        4.80997721933157       -0.43443366461926
H           -4.27362778901288        5.19726195223455        0.79703386593469
H           -0.70577223854286        2.84325040346144        2.75770953396868
