72
 energy: 70.274133368860 xtb: 6.6.1 (8d0f1dd)
N           -1.66020750587197        2.91736962542186        2.26264287214366
C           -1.66374335489458        2.20165410203275        1.23867436160734
C           -2.83798370102886        2.08419414748830        0.30620547911178
C           -3.41220014255676        0.67820670335674        0.39482638767774
C           -4.37079441335066        0.26207557651102       -0.53341984685119
C           -4.91829811291213       -1.00559879269361       -0.48540549551780
O           -5.85637376684614       -1.48929661313281       -1.34410202115863
C           -6.40859447069071       -0.62550308336965       -2.30376867062703
C           -4.49423696671135       -1.91263426586048        0.51361118536301
O           -5.07011472512709       -3.14515557181161        0.46737540182052
C           -4.72434612338377       -4.08639086998622        1.45254440805326
C           -3.55467373802220       -1.49541551960871        1.43649356621230
C           -3.02432409882004       -0.21119143967476        1.37965617781611
C           -2.27200705718807        2.33596354178280       -1.11666980582393
C           -1.47523674551337        1.16659145161750       -1.73008363701318
C           -0.13304754838662        0.96604232359848       -1.13738692646656
N            0.37469203708029       -0.18549637552476       -0.69465940885012
C            1.75110829719540       -0.25684874287445       -0.28576549112023
C            2.69729189104533       -0.84846621734423       -1.37529463514618
C            4.11762343491616       -0.58381236612141       -1.02213026489603
C            4.69702102497136        0.64917465131148       -1.34563481890725
C            5.98174723127161        0.94995859363236       -1.00233807228489
C            6.81781060484022        0.04091862278804       -0.27841334277454
O            7.97150823598639        0.36999176247045        0.03045364032618
C           11.45212278048167        1.00711351941969        1.15867642953560
C            6.18222073455275       -1.24875016163751        0.05047849017844
O            6.99679144341566       -2.11385694073306        0.72284326790923
C            6.51573350045864       -3.38511350212272        1.06411923856864
C            4.87903426880235       -1.51835069803627       -0.30787613935176
C           -0.36353385888256       -1.42153074067403       -0.78646218682332
C           -3.97689189862785        3.09886040129318        0.61198173879878
C           -4.62984369830891        2.81913238017685        1.96521173864585
C           -3.51750381982263        4.55529162222977        0.55372822711707
H           -4.69464864416540        0.94762677701969       -1.29863678360245
H           -6.88334930106413        0.24536483759973       -1.83985438921739
H           -7.16583331707378       -1.21252536006257       -2.82101268594226
H           -5.65859427656961       -0.28875274100868       -3.02809982440822
H           -4.98221925366616       -3.73477797644173        2.45671612781242
H           -5.30999377250202       -4.97524567854309        1.22281149628575
H           -3.65869209495700       -4.33750029559734        1.41647387869388
H           -3.22927471923131       -2.15616505406268        2.22433900572642
H           -2.31867660515990        0.08811518660618        2.13932289638347
H           -3.10540092016341        2.55966141438465       -1.78331041064954
H           -1.63384534369333        3.22001267004602       -1.08813660394642
H           -2.07876955228175        0.26106378698010       -1.69627383031358
H           -1.31683865279043        1.42949332236990       -2.78230533842088
H           -0.81241535502420        1.59263922508683        0.90183612878370
H            0.51527985141131        1.82594908669532       -1.07570832448331
H            1.82287230721453       -0.87585136158069        0.61216745980153
H            2.10806356972341        0.74507501984329       -0.03593229566316
H            2.45834598046091       -0.36547799985438       -2.32463537455304
H            2.50030107653849       -1.91828177515134       -1.47063894466404
H            4.11837489466271        1.37619373467450       -1.89961624779636
H            6.43561343909209        1.90187932663804       -1.26252012024859
H           11.07039665073103        1.82537464116286        1.71424408778261
H           11.64515691924111        1.13934866574584        0.12414866219817
H           11.72590275377986        0.10389213164371        1.65175979913280
H            7.32796196214641       -3.89490897280257        1.58107081160518
H            5.65181354737773       -3.33033761217969        1.73778294496624
H            6.23981118057045       -3.96911577596994        0.17761889417786
H            4.41784589477560       -2.47087771157399       -0.06576379881588
H           -0.50061768979778       -1.73060122577360       -1.82725909975082
H           -1.34271017942031       -1.30954830647589       -0.31683994786757
H            0.18837188332946       -2.19724473993130       -0.26218040304457
H           -4.73942968909330        2.95244773229083       -0.16214527325588
H           -3.91257218569986        2.96588069983286        2.76501486570905
H           -5.01286601156682        1.80234986336902        2.01322224828976
H           -5.46068782795260        3.50366334377908        2.11858842529480
H           -2.74823554053199        4.73515674341408        1.29702801523094
H           -3.13869861250234        4.82174192150694       -0.42948996334620
H           -4.35972811609806        5.20687968150029        0.77287001506988
H           -0.80044741169565        2.94669331812986        2.80379077990548
