72
 energy: -4.079860044514 xtb: 6.6.1 (8d0f1dd)
N           -1.51265793295894        2.79741075174234        2.24272608373159
C           -1.56398577431157        2.15302443972087        1.16530124991084
C           -2.75421701999499        2.06240711746444        0.25144311985230
C           -3.32461852536253        0.65228517436691        0.33119542259190
C           -4.31023867955968        0.24787420238088       -0.57164514501217
C           -4.85686087303405       -1.02014756206368       -0.52495013421036
O           -5.82518370056846       -1.49016359442739       -1.36214176752826
C           -6.39713960535107       -0.61126487257281       -2.29619192183383
C           -4.40900225681869       -1.93868999408575        0.45019043065354
O           -5.00126988614743       -3.16632502317611        0.41574930167414
C           -4.66948644268083       -4.09856893742671        1.41211451882582
C           -3.43518128012703       -1.53746589355803        1.34429872781397
C           -2.90031492548026       -0.25513397728274        1.28448627389674
C           -2.20440769524525        2.30452037640540       -1.17971612608089
C           -1.27879149137060        1.18352474312404       -1.68208827399600
C           -0.01045863944395        1.12507562553761       -0.91355722661890
N            0.61288631535372       -0.06344435053791       -0.56942740512900
C            1.98491842317409       -0.05856218918444       -0.16931555986993
C            2.92011699123542       -0.57306294589871       -1.28860381720204
C            4.34970202167845       -0.44588156908557       -0.86231945780539
C            5.05412788878300        0.72439003864779       -1.07492925577721
C            6.36858527654802        0.86251003425419       -0.64206030054844
C            7.02271340242646       -0.16118305581936        0.02555809710123
O            8.32027863210490       -0.15399870416996        0.49750493248846
C            9.23943295938722        0.91419218926036        0.38329481224019
C            6.29356373176247       -1.36437681177239        0.25489245158929
O            6.97059457380440       -2.35028856214088        0.91287588721534
C            6.33729314601907       -3.58555927861846        1.14291441995073
C            4.98527359782883       -1.48570151410596       -0.18563859446637
C           -0.07769937883360       -1.31889588003339       -0.63550771192854
C           -3.88037764977001        3.07875401539131        0.58433469941073
C           -4.50814903620946        2.77929273893576        1.94405000785928
C           -3.40589377405366        4.53022117714541        0.54924937620619
H           -4.66279803885701        0.94516756262016       -1.31360182354399
H           -6.85225097006476        0.25784156353534       -1.80904652045135
H           -7.17307963880336       -1.18694750046078       -2.79863735956861
H           -5.66586491436922       -0.27022132886627       -3.03740297744559
H           -4.89212831962191       -3.71637136393861        2.41423000223587
H           -5.29203994974207       -4.96961256977037        1.21298066069466
H           -3.61452528685806       -4.39084646546105        1.36077643376639
H           -3.08546340407073       -2.21149617742634        2.11032079195356
H           -2.16216996938298        0.03222520495284        2.01700104813392
H           -3.03796683160058        2.40098119564184       -1.87660962011613
H           -1.65095167791383        3.24472605940780       -1.19124273622740
H           -1.82364477017755        0.24081540385903       -1.63972581115479
H           -1.03775708310174        1.38633888015845       -2.73447669455180
H           -0.69805563431042        1.64467825391862        0.67655179881254
H            0.64343191369438        1.98032448709597       -0.97486086200901
H            2.10044816915860       -0.69225552537575        0.71819018561307
H            2.28362741886081        0.96016484851483        0.09644297406677
H            2.73521783437042        0.02490984059424       -2.18310869209799
H            2.66719097798139       -1.61157193369286       -1.50916268156759
H            4.57821284866710        1.54338080949972       -1.59434938265631
H            6.88602764168730        1.78796500653003       -0.83579777257109
H            8.88298412666191        1.81606796273176        0.89559027470356
H            9.43665107276569        1.15432141520849       -0.66762907678562
H           10.16727791366285        0.58369221918465        0.85533613423098
H            7.08096865021646       -4.20156256143222        1.64730309342044
H            5.45924954061735       -3.48448313283010        1.79077529506439
H            6.04278201612130       -4.07518287199622        0.20808555527768
H            4.43460755700877       -2.40082134842719       -0.01812569916135
H           -0.24585911350768       -1.63713103956349       -1.67040350351602
H           -1.04684900642612       -1.25143197896985       -0.13197409010969
H            0.52491270475839       -2.07349031408473       -0.13328818382137
H           -4.65358737476798        2.95799313847392       -0.18306562481689
H           -3.77000042341714        2.90919907664194        2.72723795129809
H           -4.88754266463637        1.76103671805521        1.98188491509621
H           -5.33441710743675        3.46197151111389        2.12673315335775
H           -2.61359226254304        4.68387271302118        1.27470902303066
H           -3.04849116772978        4.81409069561315       -0.43719989684847
H           -4.23526583060126        5.18609259565131        0.80513892297166
H           -0.62373869390819        2.78595257880956        2.73819937756987
