72
 energy: 70.546131666104 xtb: 6.6.1 (8d0f1dd)
N           -1.65295524962901        2.92457809354562        2.26221242285759
C           -1.65487199187143        2.19983254442511        1.24044556035419
C           -2.83427347091487        2.08590861540931        0.30591390022454
C           -3.40840429097132        0.67796217197764        0.38913704131789
C           -4.36946194013380        0.26071560112372       -0.53627432519059
C           -4.91803790413150       -1.00594401427596       -0.48761164894196
O           -5.85765397115500       -1.48900385946007       -1.34582877662546
C           -6.40831702086490       -0.62307661664557       -2.30549226659139
C           -4.48974333866340       -1.91442467237493        0.51012225241762
O           -5.06478433749796       -3.14482611659657        0.46425031180628
C           -4.71916797357771       -4.08775101478482        1.44983098089491
C           -3.54325498055758       -1.49788815819337        1.42611804140709
C           -3.01367065344298       -0.21248012275075        1.36933662595275
C           -2.26904860148432        2.33911571114919       -1.11428844140879
C           -1.46747153688459        1.16697358273838       -1.71814938560607
C           -0.12091886292972        0.97133154589015       -1.12025825023224
N            0.39857451360808       -0.18318932599659       -0.69072990429083
C            1.77856638805127       -0.24728971956399       -0.27987215720812
C            2.73007887926325       -0.83247356591796       -1.36387099601594
C            4.15042980717555       -0.56610923253153       -1.00332475129060
C            4.74753376236428        0.65759889826008       -1.32564515142202
C            6.03738002662091        0.95419593168677       -0.98102753456690
C            6.87895590221007        0.04528013422397       -0.26473904696277
O            8.04821860004197        0.33815208160149        0.03820140298081
C           11.22940969837754        0.97249395085698        1.08958386067696
C            6.22064222546834       -1.23623733023780        0.06014395587672
O            7.02029888334052       -2.11807079196838        0.73921819519569
C            6.50857777564386       -3.38568403677191        1.06766708856167
C            4.91359753435323       -1.50396980263717       -0.29805094102941
C           -0.33336746054779       -1.42209035409796       -0.77410907803793
C           -3.97546386675462        3.10016930042618        0.60816683759031
C           -4.62036762122621        2.81680047695524        1.96279545109953
C           -3.50908222269714        4.55255007269823        0.55334801283638
H           -4.69858336951892        0.94949861017255       -1.29710449219530
H           -6.88272065988842        0.24819412960758       -1.84110734873827
H           -7.16443163894538       -1.20972134476309       -2.82421187880837
H           -5.65730480760086       -0.28716132017820       -3.02938879393769
H           -4.97292434481269       -3.73242414668262        2.45315602325247
H           -5.30898884806836       -4.97343624569018        1.22028864404983
H           -3.65412962770020       -4.34063648202458        1.40893568268624
H           -3.21411128777277       -2.15951733319094        2.21118795230086
H           -2.30377304163652        0.08497985435194        2.12540141597647
H           -3.10430690063697        2.55073297323829       -1.78507786080667
H           -1.63787602718124        3.22963288352102       -1.08567597505082
H           -2.06565708049150        0.25715017854468       -1.68821358691295
H           -1.29630240181730        1.42842932181698       -2.76732932516283
H           -0.80599777662766        1.58323151908271        0.88982023091348
H            0.53135675610400        1.83157800713223       -1.09591581504872
H            1.85383533088704       -0.86445575031599        0.61869625701749
H            2.12497607080517        0.75881767576308       -0.02982487265390
H            2.49752903337733       -0.33950343643433       -2.31029280248845
H            2.54009736410980       -1.90590198988340       -1.46863550593708
H            4.17779789085142        1.38553306639749       -1.88715663108948
H            6.48992658480918        1.90957469733213       -1.23130423174196
H           10.84265543231693        1.80376710307937        1.63978775914882
H           11.41820824592123        1.12357089550879        0.04907118955266
H           11.52737329522085        0.06820561263181        1.58470140444494
H            7.30223054473478       -3.92121829438865        1.58750719112148
H            5.64142226362981       -3.32004668696761        1.73507814386017
H            6.23646918061733       -3.95385099655037        0.17085453705594
H            4.44897484585084       -2.45765178645079       -0.06237580189295
H           -0.47522000580089       -1.72951500594214       -1.81292179471965
H           -1.31062794047328       -1.30758235931943       -0.30196741005980
H            0.21976238901998       -2.19811456792771       -0.25035413117315
H           -4.74026154179023        2.95899640142242       -0.16622288676397
H           -3.89936583458036        2.96051782305490        2.75995723492541
H           -5.00106875410261        1.79954220096075        2.00950043706105
H           -5.44951174355845        3.50082631902834        2.12451228352252
H           -2.73594336736180        4.72663942257823        1.29433504204713
H           -3.13210759344244        4.82078024624095       -0.43011530752914
H           -4.34679523916704        5.20824930603700        0.77801376866924
H           -0.80624414148766        2.95922409042883        2.82740242905372
