72
 energy: 70.344800428041 xtb: 6.6.1 (8d0f1dd)
N           -1.65856405727191        2.92636065942062        2.26319595773578
C           -1.65991632269240        2.20736391023768        1.23841054768844
C           -2.83849532919838        2.08743099603376        0.30755375279875
C           -3.41145663677892        0.67920547240677        0.39401690394030
C           -4.37024929239045        0.26177921138450       -0.53433484838915
C           -4.91778097095729       -1.00535256274728       -0.48592404060789
O           -5.85751135027128       -1.48924321839964       -1.34507445782166
C           -6.40872941127442       -0.62435483994390       -2.30468743070310
C           -4.49201525600467       -1.91292774229620        0.51216082950053
O           -5.06800123030313       -3.14501937379143        0.46565082873399
C           -4.72184714712531       -4.08701135270954        1.45088170815947
C           -3.54896318459884       -1.49650707635911        1.43142016374545
C           -3.01882913208974       -0.21172993630794        1.37501155460847
C           -2.27241131579425        2.33893541227642       -1.11477229855338
C           -1.47404865174894        1.16446979403602       -1.71762653891485
C           -0.12796867918193        0.97208071288096       -1.12375171169554
N            0.38855605952999       -0.18547651972601       -0.68928489973446
C            1.76700653293919       -0.25094892104408       -0.28397882168063
C            2.71568617090773       -0.84222342437720       -1.37068060169076
C            4.13524699351306       -0.57543721171955       -1.01467838061198
C            4.72269011846699        0.65341649979207       -1.33829268696235
C            6.00956452185390        0.95305687444926       -0.99387323306126
C            6.84783091686093        0.04381873916482       -0.27334424749612
O            8.00939638984512        0.35474938744816        0.03151738924710
C           11.34225623491602        0.98561009063111        1.12207211770656
C            6.20144735794968       -1.24085506710036        0.05456378184352
O            7.01073001834830       -2.11255809138406        0.73007141687150
C            6.51549428117575       -3.38129527486311        1.06463696766220
C            4.89661275336457       -1.51136694336162       -0.30330211040117
C           -0.34807553242519       -1.42204311554750       -0.77896615234968
C           -3.97846829957305        3.10068059390054        0.60969899651945
C           -4.62619843089475        2.81808834374132        1.96339122430671
C           -3.51360550903529        4.55408092329399        0.55288958884793
H           -4.69562990488919        0.94866436109202       -1.29795597293439
H           -6.88398839698378        0.24662127362727       -1.84088372472329
H           -7.16518279370790       -1.21147455761558       -2.82283318974900
H           -5.65817712783236       -0.28819674012946       -3.02893642426976
H           -4.97757804527202       -3.73354361281914        2.45482049979862
H           -5.30981030886978       -4.97417016440941        1.22154216653861
H           -3.65655432513626       -4.33932358082320        1.41245772682771
H           -3.22119524121618       -2.15805677032106        2.21768871351809
H           -2.31050910744365        0.08427504483153        2.13304091697652
H           -3.10618163689696        2.55647690713420       -1.78468839423416
H           -1.63640505777337        3.22484809361643       -1.08663542079670
H           -2.07562410776816        0.25675662437750       -1.68930794191641
H           -1.30766688592301        1.42667083708814       -2.76738038756050
H           -0.81179323614652        1.58771679491723        0.89168288080507
H            0.52169321054261        1.83357540848574       -1.08656860506009
H            1.83755565866829       -0.86691721478928        0.61479891874112
H            2.12158278290684        0.75270125351788       -0.03235863304726
H            2.47974621274582       -0.35681793630883       -2.31960152819163
H            2.52112875598805       -1.91380647259752       -1.46940398644551
H            4.14851199875724        1.38063744468532       -1.89669714664970
H            6.46299057898234        1.90740780721394       -1.24786100752987
H           10.95573458138657        1.80953822550660        1.67651054713088
H           11.53241509986552        1.12982048106263        0.08075893846083
H           11.62728006170511        0.08306961375834        1.61903224837994
H            7.31578067570807       -3.90644248567089        1.58465694594107
H            5.65118863461232       -3.31739852515656        1.73472828066399
H            6.24416422694679       -3.95868933813698        0.17314346633820
H            4.43418737772730       -2.46471128891863       -0.06407204994472
H           -0.48741936826121       -1.72635652039484       -1.81995119113504
H           -1.32686620790658       -1.30946301491350       -0.30944381538377
H            0.20112965077003       -2.20251826395935       -0.25687027941337
H           -4.74129068975934        2.95553167593561       -0.16485992077123
H           -3.90625074145915        2.96322542056680        2.76125663111987
H           -5.00668243830660        1.80025834033630        2.01080825910317
H           -5.45626336062986        3.50172381714002        2.12236301496940
H           -2.74183389964423        4.73102176988742        1.29487670300186
H           -3.13551475989220        4.82136533417229       -0.43060099156209
H           -4.35296097355505        5.20849535051584        0.77447641147621
H           -0.80427255107143        2.95265830477928        2.81619631744561
