72
 energy: 13.981561218927 xtb: 6.6.1 (8d0f1dd)
N           -1.56039224881986        2.85301469824849        2.25398843335301
C           -1.59521162894066        2.16443725060524        1.20321954476935
C           -2.77258797957049        2.06895281595081        0.26737203005144
C           -3.34545983815061        0.66122751687137        0.34506989682300
C           -4.32551281328941        0.25248322242903       -0.56172543906521
C           -4.87353474379275       -1.01563172574142       -0.51418290070459
O           -5.83747804296866       -1.49075462951248       -1.35850871747141
C           -6.39928942145169       -0.61376959665212       -2.29965917379923
C           -4.43092634038819       -1.93144863661572        0.46428012293573
O           -5.02071169392934       -3.16363258765429        0.42717279168245
C           -4.68099892037400       -4.09435943317973        1.42139679614240
C           -3.46175631350424       -1.52676626241821        1.36267068173204
C           -2.92840704089288       -0.24407625962742        1.30312530546947
C           -2.22441688300384        2.31272597474555       -1.16593868569072
C           -1.32308290367579        1.18824617186449       -1.71045639340393
C           -0.04277077603322        1.11101042157744       -0.96960715115488
N            0.56491970226722       -0.10045108642334       -0.59090764310768
C            1.94412463904691       -0.11031807654218       -0.19597832780564
C            2.88862567812468       -0.63790262178198       -1.30885515382305
C            4.32729540997259       -0.47571299785581       -0.90787346557524
C            5.00657442802739        0.70600528712975       -1.13823629299756
C            6.32606085648981        0.89592661066489       -0.71901976478361
C            7.07282672822633       -0.06408003032638       -0.03481172706289
O            8.42741490652509       -0.00604965674816        0.43330856343730
C            9.59072602786471        0.89396405398892        0.51121541087916
C            6.34449103557368       -1.29405982431439        0.20657622683953
O            7.00862020634468       -2.28846103687005        0.87546030617170
C            6.38290479576056       -3.53162035883567        1.12403158458978
C            5.02859977264077       -1.46963136846702       -0.22860389067408
C           -0.13229376490539       -1.35058339796236       -0.67260268137994
C           -3.90526095815641        3.08231924570055        0.58754626009960
C           -4.53703643105858        2.78772585198923        1.94608650342146
C           -3.43169190590963        4.53368956352222        0.55008064062634
H           -4.67216929902130        0.94757433289304       -1.30884184073685
H           -6.85812194463154        0.25726873937957       -1.81837659448078
H           -7.17071145088807       -1.18814300799737       -2.80981246404612
H           -5.65993033061699       -0.27175455508294       -3.03267099824989
H           -4.91099517539857       -3.71748572637042        2.42418126131990
H           -5.29166592696304       -4.97341414748610        1.21924857209995
H           -3.62193702791704       -4.37535197440543        1.37254105418802
H           -3.11618830039463       -2.19822893666337        2.13283013394832
H           -2.19617230922453        0.04844859995922        2.03871094885386
H           -3.06184585833843        2.43743196849328       -1.85460043238393
H           -1.64903029509893        3.23927832883343       -1.16440513975181
H           -1.87500800716556        0.24828980035783       -1.66406873494325
H           -1.11391415626295        1.40097729131601       -2.77016122222695
H           -0.72851004087041        1.62969020124129        0.75640515676428
H            0.63772660976006        1.94904320687854       -1.04423313292319
H            2.05727461808242       -0.74732483740991        0.69264597920411
H            2.24427953352326        0.91067034177742        0.06633502303528
H            2.67746245525932       -0.05932674640926       -2.21133196738512
H            2.63942118969590       -1.68279115920649       -1.50528893260550
H            4.49231237236645        1.50275481307937       -1.65724117192158
H            6.79597794272571        1.84235857166936       -0.92933440482383
H            9.34780704929394        1.81688860279982        1.05663224581059
H            9.91104106853884        1.16899868830700       -0.50196674652908
H           10.41264174198024        0.37577011776388        1.03205124916140
H            7.13498871960081       -4.13551861855341        1.63286624689119
H            5.50679915691410       -3.44295146432050        1.77709007000356
H            6.09092528961139       -4.04401186886634        0.20048039390586
H            4.50558788098804       -2.39966352157861       -0.03621609027038
H           -0.29125113378766       -1.66688269523784       -1.70964884131708
H           -1.10515585992934       -1.27409347504006       -0.17946232170848
H            0.45608688424388       -2.11305184582330       -0.16208109778146
H           -4.67460825246101        2.95971147926877       -0.18321679946137
H           -3.79983723963703        2.92270796140907        2.72714486509428
H           -4.91537898252463        1.76916408191768        1.98805547954186
H           -5.36277632655469        3.47114035783376        2.12821728689026
H           -2.64390248063717        4.68211644851314        1.27958964576944
H           -3.06754904400147        4.81053718829667       -0.43534879860255
H           -4.26046287506482        5.19339722867802        0.79972219894472
H           -0.67941284142815        2.81983862237105        2.75293289694619
