72
 energy: -1.499700325219 xtb: 6.6.1 (8d0f1dd)
N           -1.52392724396692        2.81094927401199        2.24580535970604
C           -1.57168235968433        2.15374052311729        1.17567724525863
C           -2.75853609707673        2.06377237031312        0.25560868167976
C           -3.32988912348759        0.65447580031176        0.33463321673828
C           -4.31413691607967        0.24893219020555       -0.56909586825889
C           -4.86108850633678       -1.01914801723232       -0.52219762105632
O           -5.82825810313248       -1.49053065409650       -1.36117413961172
C           -6.39764660049820       -0.61208107277085       -2.29703636535133
C           -4.41455469906398       -1.93699380332421        0.45376315771930
O           -5.00612195990902       -3.16582483285406        0.41854955760044
C           -4.67246184582791       -4.09769952297491        1.41444194980843
C           -3.44186598531690       -1.53478169231247        1.34886233554309
C           -2.90733360036190       -0.25238620927451        1.28905204657224
C           -2.20939187233835        2.30628235546686       -1.17635570683656
C           -1.28885478421903        1.18528387681030       -1.68992993790020
C           -0.01857318991922        1.12271239959565       -0.92572479336964
N            0.60129109171316       -0.07215140785510       -0.57400019997237
C            1.97525124186648       -0.07144223811037       -0.17531767553966
C            2.91246548491817       -0.58952244043017       -1.29303166610811
C            4.34454179064948       -0.45314283357021       -0.87395559870284
C            5.04255082881278        0.72019338621977       -1.09088001910540
C            6.35838467861674        0.87200348720104       -0.66131012283648
C            7.03534326542150       -0.13669696730606        0.01020353081826
O            8.34418992295991       -0.12021617171996        0.48192456539779
C            9.32552593210243        0.90803010677863        0.41483124550637
C            6.30622421333964       -1.34651876013849        0.24258682534194
O            6.98003413240169       -2.33439506015100        0.90375094679529
C            6.34779298724979       -3.57126936098000        1.13796467360801
C            4.99616063107677       -1.48223370413731       -0.19676273757930
C           -0.09089921829263       -1.32673914402018       -0.64442212544495
C           -3.88644512134566        3.07951372432617        0.58504467561134
C           -4.51532336977749        2.78141443913733        1.94441459890788
C           -3.41222400243315        4.53091968892415        0.54960533317825
H           -4.66525501545511        0.94567055573317       -1.31227161527257
H           -6.85363843840761        0.25754895480987       -1.81134732823356
H           -7.17255102802557       -1.18738832210489       -2.80140240653385
H           -5.66437956894106       -0.27079544058988       -3.03616616572908
H           -4.89687270223262       -3.71668222762661        2.41669796437985
H           -5.29214185953446       -4.97072419176699        1.21457271112447
H           -3.61646797912084       -4.38710490310064        1.36374786968811
H           -3.09322449393401       -2.20815136877732        2.11593678460685
H           -2.17054523557872        0.03635731107977        2.02214628477753
H           -3.04417600127804        2.40957095618056       -1.87109629378083
H           -1.65079871340882        3.24328220142621       -1.18490843668895
H           -1.83577556743952        0.24343683771831       -1.64654681716916
H           -1.05566927012503        1.39041338276945       -2.74448990999224
H           -0.70507581829260        1.64137190067908        0.69568115082876
H            0.64186609222380        1.97384006700154       -0.99212984483214
H            2.09026029680127       -0.70558457084908        0.71273979013020
H            2.27411606512941        0.94803040291691        0.08905179164113
H            2.72071343561248        0.00338931509069       -2.18965659947810
H            2.66091371832781       -1.62992300350978       -1.50684932578460
H            4.55647895367474        1.53359255581689       -1.60991929973354
H            6.86457622129697        1.80280014823561       -0.85863210263084
H            8.99881178505689        1.81743109182896        0.93544853029785
H            9.55446851880679        1.15943949281186       -0.62752025178552
H           10.22931268785779        0.52846198888430        0.90087535244539
H            7.09298271678094       -4.18487032814433        1.64364859678822
H            5.46988213594144       -3.47258106841299        1.78659488329156
H            6.05374941016559       -4.06595626468544        0.20560996666604
H            4.45257039147161       -2.40173699886199       -0.02356336441134
H           -0.25700687621838       -1.64419654270115       -1.67992842005780
H           -1.06107398685569       -1.25715702189222       -0.14365062702293
H            0.50794287726390       -2.08387538409712       -0.14043983963389
H           -4.65869411287113        2.95853806699666       -0.18320968193846
H           -3.77716088028179        2.91262527607413        2.72671824506799
H           -4.89440388726842        1.76307893430242        1.98343480682573
H           -5.34136903586572        3.46432929593941        2.12718652206536
H           -2.62101016613127        4.68283901834735        1.27610171931174
H           -3.05304426383766        4.81304677501699       -0.43654329744091
H           -4.24137480378614        5.18788353099678        0.80400236909328
H           -0.63776291729971        2.79372233491377        2.74394570189871
