25
 energy: -42.544704155213 xtb: 6.6.1 (8d0f1dd)
C            3.21884202973968        1.18196459156273        0.08994293423713
N            2.27642683051312        0.09083959512114        0.05762702630910
C            2.54843866675269       -1.22693231253010        0.07620234142682
N            1.45470300093414       -1.97405309678698        0.02190968821615
C            0.40791278858008       -1.09953656488302       -0.01860083752228
C            0.90291774070813        0.20083993942345        0.00937507070634
C            0.08019080783034        1.38415517846638       -0.00167482224101
O            0.47827040329471        2.53644883795263        0.00123164371307
N           -1.28153083149964        1.07855619808344       -0.03613083879009
C           -2.23572458124850        2.18322075411120       -0.05453951370902
C           -1.82700559991830       -0.19200248597170       -0.05584622344210
O           -3.02695487914941       -0.35656025890585       -0.08039330377779
N           -0.94881285070828       -1.27716401067592       -0.05235152279634
C           -1.50531310665062       -2.61306431934647       -0.06108737599699
H            3.74991916269594        1.19459016177825        1.04345749570432
H            3.95447053069073        1.07367045850171       -0.70931362046694
H            2.67581943215064        2.12092882338843       -0.02738958128679
H            3.55297850361582       -1.61278596859426        0.06119938814380
H           -1.67614936953466        3.11910737231285       -0.03613121468735
H           -2.84544602255573        2.13041408905577       -0.95588143899254
H           -2.89465871612879        2.11664025315787        0.81120709887594
H           -1.18382153291016       -3.15326678580765        0.82796948226687
H           -1.17211998579244       -3.13761836025258       -0.95435721116177
H           -2.58745522975080       -2.52296240492040       -0.06871975508314
H            1.99612905693102       -3.60620821657222       -0.03760470177866
