72
 energy: -99.343067027043 gnorm: 0.006104828584 xtb: 6.6.1 (8d0f1dd)
N           -2.59703374147215        2.72827995266624        2.27763172127878
C           -1.96406237711671        2.22271445354553        1.23268669015493
C           -2.92640949246835        1.92788568343708        0.12841737705775
C           -3.41426106073699        0.48071626240899        0.22583570355302
C           -4.42008430453847        0.04082614692324       -0.63465043542557
C           -4.92004648431022       -1.24803232249359       -0.55643162412787
O           -5.88761217631646       -1.75678154695609       -1.34680790232309
C           -6.50869734418902       -0.92325440576164       -2.29604887559929
C           -4.40305611902618       -2.14069568802110        0.42080662069774
O           -4.95597113840413       -3.36908189971563        0.43517598792102
C           -4.57855197964199       -4.27469383521634        1.44638139189528
C           -3.39335229262001       -1.69910809787271        1.25902977799490
C           -2.90520060620258       -0.40233292792879        1.16224725847366
C           -2.36253848039892        2.21123330196981       -1.27573982784804
C           -1.41696872819417        1.11760683075109       -1.80161397146026
C           -0.10573274707780        1.10278606445071       -1.12037797451096
N            0.50434126580424        0.02542937730793       -0.63217674925550
C            1.88329263936604        0.10410321779535       -0.21290758321427
C            2.84555675981907       -0.34412028464302       -1.33136499735513
C            4.26948865706430       -0.13873818750254       -0.89849578589750
C            4.90778515160136        1.06884202192606       -1.12538230046936
C            6.21324538237632        1.27164060088626       -0.70451215955288
C            6.90502450654069        0.26896045444258       -0.04157780085365
O            8.17218540828254        0.35477060139784        0.40880049952425
C            8.89822449515317        1.54162106841104        0.18809247028583
C            6.25680753779097       -0.97277148958726        0.19972042296151
O            7.00181274898328       -1.89326207389299        0.84668858112642
C            6.45600055866779       -3.16589411652373        1.09736437229689
C            4.95167870133135       -1.15217763110144       -0.22900223053416
C           -0.08099162406281       -1.29076968755545       -0.71763200025710
C           -4.11277525624790        2.86415662170494        0.53396799248209
C           -4.01096622110438        2.81736608432621        2.06491184500030
C           -3.97004170879954        4.29921353717985        0.01807815299821
H           -4.82450042733261        0.72183234839245       -1.36582236394000
H           -6.99784991549841       -0.06798190065653       -1.81976294352514
H           -7.26060962532797       -1.54231482290663       -2.78132501587685
H           -5.79560790578174       -0.56777337619551       -3.04726046560965
H           -4.76418699668090       -3.86150978571739        2.44202437115869
H           -5.20124904575930       -5.15471892998765        1.29799545164287
H           -3.52481625329223       -4.55868139935578        1.35775158727752
H           -2.98921172458658       -2.35042780786764        2.01635796186181
H           -2.13147392481146       -0.08876289925740        1.84642138983416
H           -3.19762756783083        2.28923963318570       -1.97095863354217
H           -1.83791781769292        3.16663492614095       -1.27002648997128
H           -1.91171573934029        0.15019750555253       -1.74512340574965
H           -1.24078470769139        1.33999627067895       -2.86233749422926
H           -0.90531858944870        2.04701317667934        1.22748000280123
H            0.43534248727042        2.03394210324595       -1.05312538176269
H            2.02817806393131       -0.52744540197219        0.66723152509944
H            2.11959987373825        1.13423839468150        0.06160338780624
H            2.63924792309194        0.24802444897003       -2.22478011317595
H            2.67034693539320       -1.39488585499623       -1.56454796213764
H            4.39441147266123        1.86196897163910       -1.64775505750410
H            6.68659937550363        2.21882542795498       -0.90436235072522
H            8.42819702218988        2.39725487398374        0.68279633171342
H            9.00756787598537        1.75159299088562       -0.88019734715950
H            9.88023699037333        1.36837535016897        0.62389614105539
H            7.24150594270951       -3.72681689158961        1.59997043258650
H            5.58034496860476       -3.10591837260932        1.75196896411513
H            6.18483164986441       -3.67687837505787        0.16821491187359
H            4.45311873619697       -2.09357545815423       -0.05870673380709
H           -0.15000617375959       -1.63050241904950       -1.75382597804029
H           -1.08197479924866       -1.28986739893434       -0.28077672090564
H            0.53690044598609       -1.99254886829308       -0.16307634051516
H           -5.06467315493895        2.45557316856935        0.19798244678450
H           -4.88436538592821        0.39006828567732        3.19215405324752
H           -4.50119049744856        1.89051876799924        2.48204092485060
H           -4.43203093206332        3.68997326661615        2.56396437924260
H           -3.02716338372189        4.73787208242489        0.33715170177804
H           -4.02580546984329        4.33343713311901       -1.06507919558188
H           -4.78320408539475        4.90419193138798        0.41170083502029
H           -2.17771997293309        2.88754034039783        3.18029338959820
