72
 energy: -99.406461459617 gnorm: 0.007815713158 xtb: 6.6.1 (8d0f1dd)
N           -1.95701794369103        2.71046042305925        2.30484082459760
C           -1.87155550976186        2.11579703306303        1.21042952310365
C           -3.00766446687558        1.92364793763570        0.24365260857813
C           -3.49213957413151        0.48121809770842        0.32489371805726
C           -4.37917598699053       -0.01855003244487       -0.63131957951138
C           -4.84254939062091       -1.32367253487414       -0.57657775895257
O           -5.70169252322723       -1.88657476967262       -1.45161190547852
C           -6.28824860693198       -1.09538752769341       -2.45768625153469
C           -4.40205419351005       -2.18276721119884        0.46661998623332
O           -4.89866679677113       -3.43567168993112        0.43799230817577
C           -4.55696028613975       -4.33179221501214        1.46997434385283
C           -3.52329007010539       -1.68004130156330        1.41223073450788
C           -3.07832858158044       -0.36622798481919        1.34172249832707
C           -2.43203395934193        2.21123307068160       -1.16656404049623
C           -1.47523267881890        1.12969922873440       -1.69873178091134
C           -0.15429957323924        1.12098372419867       -1.02922994723465
N            0.49431288835215        0.03533314111574       -0.62258604794568
C            1.87756744410307        0.11943887723847       -0.21714107062024
C            2.82771842912975       -0.33448552961398       -1.34234934645298
C            4.25574411865519       -0.13804672765477       -0.91697149371787
C            4.89592424385628        1.07082024698208       -1.13676390839963
C            6.20313956908580        1.26848961006926       -0.72007763049369
C            6.89650838146710        0.25878380038095       -0.06831142653260
O            8.16285053999746        0.33795617656997        0.37989322248337
C            8.88773654193286        1.53079082820805        0.18678781004474
C            6.24748340008076       -0.98589399415106        0.16262585154214
O            6.99486479089455       -1.91168359303508        0.79562383249336
C            6.45218461054649       -3.18700909506256        1.04079113765083
C            4.93939449769166       -1.15918687867150       -0.26139826429248
C           -0.11752299526680       -1.27158754210138       -0.63734780949731
C           -4.21031524731678        2.87685464996320        0.51732792038851
C           -4.89310323498980        2.56086602572854        1.84586802187502
C           -3.81120262313905        4.34755910689302        0.48850937428797
H           -4.72404898019160        0.62450599365621       -1.42465642280157
H           -6.83580771482263       -0.24863584528217       -2.03340046881078
H           -6.98556151419846       -1.75233336768261       -2.97423703443642
H           -5.54217659111705       -0.73103943550108       -3.17140050416824
H           -4.86633597924865       -3.95383045674078        2.44888064727076
H           -5.09843280926713       -5.25002853454179        1.25098336754513
H           -3.48215196199409       -4.53973520160251        1.48130580491856
H           -3.18353394013058       -2.30141544489636        2.22481900840560
H           -2.41895571556732       -0.00555921825349        2.11543562138047
H           -3.25805203075536        2.30652578868707       -1.87024041196953
H           -1.90838013066160        3.16765828117684       -1.14354408011067
H           -1.95926883884320        0.15611956061545       -1.64798427243900
H           -1.29836871177485        1.36228086049414       -2.75702664084536
H           -0.92954342399635        1.68199143486928        0.81526562875010
H            0.40646083650930        2.04464562250330       -1.02583328531960
H            2.03294527774561       -0.50532683409794        0.66625766953176
H            2.11460016963194        1.15162640371376        0.04917888612977
H            2.62097776486547        0.25927235260483       -2.23449616208442
H            2.64387322399169       -1.38394415970036       -1.57501819409136
H            4.38145382178474        1.86945097745998       -1.64939808198463
H            6.67727243578099        2.21660040124556       -0.91355076946840
H            8.41042810287738        2.37579707105898        0.69229786773847
H            9.00626992363371        1.75981753905855       -0.87647629592367
H            9.86612615220346        1.35217849457134        0.62855709486111
H            7.24037999942434       -3.74881874623873        1.53817080402548
H            5.57836323303345       -3.13226191396839        1.69803167327731
H            6.17982143572470       -3.69305408952547        0.10937475133296
H            4.44078163411936       -2.10163512858138       -0.09707048204866
H           -0.27865435115456       -1.62211831115808       -1.65909738747918
H           -1.07906442016016       -1.24801743870949       -0.11824747650831
H            0.53380662725898       -1.97732560193264       -0.12832548245086
H           -4.92966768690499        2.71143025668409       -0.28864376179006
H           -4.21566945205427        2.75511916500597        2.67083440588229
H           -5.21111425675894        1.52218440761269        1.88760042440182
H           -5.77004975648108        3.19305887504830        1.96055222308527
H           -3.45275866138660        4.65214226043813       -0.49113763104155
H           -4.67694136551239        4.95903161424733        0.72760877169336
H           -3.04646129215785        4.55366450117647        1.21997098808724
H           -1.11842066978606        2.79276403825843        2.87080859592248
