  25
        -42.13498839
 C          3.5919897602        3.0122742103        0.0517109929
 N          2.2514411425       -0.3160909089       -0.0121268977
 C          2.3863236690       -1.6078854394       -0.0095043853
 N          1.1796963027       -2.2558471106       -0.0061980420
 C          0.2292220721       -1.2881594044       -0.0058123728
 C          0.9196824072       -0.0680028283       -0.0100548126
 C          0.2011107907        1.1858236013       -0.0139645743
 O          0.6928171051        2.2919392502       -0.0291310679
 N         -1.1823779458        0.9963323413        0.0019276499
 C         -2.0243369568        2.1817426823        0.0110158684
 C         -1.8717153130       -0.2040131347        0.0063378032
 O         -3.0732874229       -0.2477720840        0.0164316037
 N         -1.1108535176       -1.3856288282       -0.0014131649
 C         -1.7965438098       -2.6598816179       -0.0054895410
 H          3.8949286537        2.7531795830        1.0473642864
 H          4.2387770860        2.7884358035       -0.7756074361
 H          2.6318293996        3.4618376183       -0.1157885570
 H          3.3277374240       -2.1208302950       -0.0112737428
 H         -1.3782030077        3.0559772948        0.0235441730
 H         -2.6604846727        2.1942856109       -0.8745133093
 H         -2.6686192505        2.1725028053        0.8906098045
 H         -1.5328497637       -3.2372990100        0.8815745873
 H         -1.5430074658       -3.2251159100       -0.9034327238
 H         -2.8678205771       -2.4615378024        0.0020753705
 H          1.0394499654       -3.2553457501       -0.0043032976
