25
 energy: -42.101865914282 gnorm: 0.004093034130 xtb: 6.6.1 (8d0f1dd)
C            3.24541066195581        1.24307481911485        0.01902767252752
N            2.27272649727823        0.18875155796052        0.00122051233252
C            2.51766952255684       -1.15312323216754       -0.00547834421488
N            1.42712171264919       -1.87971908705555       -0.00651125947351
C            0.40781579509577       -0.98893962134174        0.00044605870826
C            0.92581121840476        0.32184018063878        0.00634178973436
C            0.06457755992516        1.48692928581963       -0.00146543550592
O            0.43578719044185        2.63631820502788       -0.01205435716649
N           -1.28183392508515        1.12508927414993        0.00014448337231
C           -2.26736472556894        2.19625928848227       -0.00353993819311
C           -1.81569574725784       -0.15179231128362        0.00315058417313
O           -2.99915438626802       -0.35154471090179        0.00615067385246
N           -0.90874881786642       -1.23516033624719        0.00131225732494
C           -1.42063551467248       -2.58149336234827       -0.00125856075119
H            3.75522302237071        1.26861345146330        0.98462784372325
H            3.98978061585393        1.07881618015723       -0.76048874911513
H            2.74284877442040        2.19596654448010       -0.14179084061643
H            3.50780160029665       -1.56525879979468       -0.01035801949807
H           -1.73952514274500        3.14662468112113        0.00361349095066
H           -2.89572779743582        2.11800405845271       -0.89111515273060
H           -2.90900042199633        2.11082139891684        0.87372807104009
H           -1.06188010310607       -3.11371503735648        0.88170393329214
H           -1.07598205459450       -3.10560276314676       -0.89477601130356
H           -2.50909903951825       -2.53629729418483        0.00705416891527
H            0.75250501896532       -4.63622382835662       -0.02851325347800
