  25
        -42.06648450
 C          3.4871069277        0.5692621444       -0.1336089867
 N          2.1848448493        1.0242734711        0.0359076674
 C          1.7840339717       -2.8436928155       -0.4607077524
 N          1.6045692545       -1.7846424793        0.2357547025
 C          0.5870115304       -0.8060474740        0.1298607141
 C          0.9969257659        0.5562921489        0.0999761575
 C         -0.0887728115        1.6035435705        0.1271522219
 O          0.1487431753        2.7708642329        0.2567220027
 N         -1.3703083377        1.1146810825       -0.0401653486
 C         -2.4622064600        2.0768883031       -0.1181451619
 C         -1.7433983514       -0.2061828351       -0.0988970277
 O         -2.8792584097       -0.5630792091       -0.2388714630
 N         -0.7092249187       -1.1625677787        0.0532771176
 C         -1.1612974822       -2.5364444605        0.1570333989
 H          3.9929864476        0.5433771328        0.8391151254
 H          3.5867629034       -0.4036486760       -0.6326608314
 H          4.0149624692        1.3267613647       -0.7243058478
 H          1.0847019462       -3.1174943860       -1.2403603863
 H         -2.0366735647        3.0714923019       -0.2294840235
 H         -3.1001168970        1.8317672939       -0.9666436856
 H         -3.0646331347        2.0328777290        0.7901079943
 H         -0.4958364687       -3.1190947192        0.7907270909
 H         -1.2336675671       -2.9951035965       -0.8316132699
 H         -2.1656031312       -2.5295499316        0.5828533048
 H          2.3230064377       -1.5510387299        0.9246883562
