25
 energy: -42.155883764419 gnorm: 0.009167570390 xtb: 6.6.1 (8d0f1dd)
C            2.81258345375541        0.82283808985867       -0.05850934751594
N            1.90347031924476       -0.30244069543449        0.04218511895105
C            2.51937322264935       -1.52941377910270        0.03252422372550
N            1.89431674494299       -2.62856649669410        0.06575240057680
C           -0.26352598527978       -1.33562067705989        0.53753871783807
C            0.54806763913848       -0.17532209288513        0.14841324851409
C           -0.13116177693368        1.09557350318301       -0.00910838487698
O            0.42538029532284        2.15995617089918       -0.26228120695530
N           -1.52265369302802        1.10811609603946        0.12891488362568
C           -2.19711494294080        2.37986815786174       -0.01640701200526
C           -2.33309049254123       -0.02499873195548        0.14780115490408
O           -3.51270474274739        0.03134241203363       -0.06632467641544
N           -1.68253261933342       -1.19555697913134        0.48433653584917
C           -1.10395639114346       -2.12857888524277       -0.42757780171777
H            3.37112071912749        0.92995543086270        0.87477051146851
H            3.51601885190405        0.66433228505954       -0.87628829216644
H            2.26233530010916        1.74607073012885       -0.24172334005355
H            3.60914417065395       -1.44801015827508       -0.02236082330276
H           -1.51449176480704        3.17778352081476        0.27631076654939
H           -2.50289623247388        2.54106145334936       -1.05479435949480
H           -3.09168788128662        2.37878116576855        0.60664355181947
H            0.10909745952529       -1.90765225278091        1.37689287726227
H           -1.08607890605745       -1.87941939550786       -1.48257622687981
H           -1.29165817777671       -3.17258938335086       -0.20849078244594
H            2.42307694407675       -3.48927094683714        0.03552988064116
