25
 energy: 134.457489561572 xtb: 6.6.1 (8d0f1dd)
C            2.77065296497336        1.23172115586003        0.12463283625352
N            2.11688916638153       -0.05468653296003        0.03867622260621
C            2.59553091809227       -1.28670317602417       -0.06985651654915
N            1.57605597200755       -2.18729875984782       -0.06973380173403
C            0.37661057849862       -1.50112307178552        0.03148342519113
C            0.75621287437861       -0.16935798609143        0.11987751015020
C           -0.24776550787925        0.83837019018109        0.34306397190563
O            0.01835756451045        2.00816628243723        0.60135921201992
N           -1.47312406999188        0.25326210313799        0.21326137629290
C           -2.29906900968892        3.27354182260623       -0.25864997807545
C           -1.99396076449577       -0.87325230253581       -0.04446693980089
O           -2.78178767077349        1.99206572404150       -0.00241198664780
N           -0.87845872639082       -1.92630605149034        0.02612596979557
C           -1.09525060146299       -3.33296531278699        0.00572276307737
H            3.58212214455730        1.20755071096857        0.84914124120559
H            3.16653173806444        1.58026730034381       -0.83378177216375
H            2.00847647595385        1.95294642646289        0.44370505189189
H            3.61417559693470       -1.57853707330604       -0.16320444240105
H           -1.45216561120636        2.90135196611396       -0.83871516074186
H           -3.02196749751243        3.82909650941047       -0.82927463632797
H           -1.81980489996176        3.90789204469096        0.50055082902176
H           -0.59583909448050       -3.75996487719914        0.88658441851695
H           -0.59582039598870       -3.72297948415574       -0.88897301224706
H           -2.17320180854435       -3.49167445267433       -0.00652620771215
H            1.70203940952519       -3.18154048236719       -0.15698542467926
