25
 energy: 113.370013145393 xtb: 6.6.1 (8d0f1dd)
C            2.70441352156532        1.22957815137475        0.14496138992098
N            2.11888768613871       -0.08098566779950        0.06101977993017
C            2.67232115987824       -1.28891589217290       -0.04578470383669
N            1.68914101321261       -2.23715394501726       -0.05334085129760
C            0.46765521407911       -1.60906064187605        0.03808039176345
C            0.76161937302465       -0.25304434831327        0.11293949483079
C           -0.32004482723013        0.65282381138952        0.28207963407277
O           -0.18124054348788        1.89330456902729        0.38590861303397
N           -1.50952999632953        0.02712989933159        0.30569552387762
C           -2.48776982995418        3.83155324063849       -0.29674194110315
C           -1.92738585894438       -1.16054505139110        0.04119021450262
O           -2.60843891480332        2.50888452569919       -0.15662574232701
N           -0.76073923002253       -2.09496724279802        0.02222997892127
C           -0.97130624791819       -3.49273778668025       -0.00002250023333
H            3.53369131992150        1.24149357984509        0.85034601478020
H            3.00122282615609        1.59133684083187       -0.84154498224452
H            1.92446293936147        1.90434845082985        0.50696237985673
H            3.70573654359311       -1.49012015589375       -0.14896815374799
H           -1.69514207781092        2.35726348460291        0.07534557623324
H           -3.32654892507534        4.26718089281125       -0.74352258656197
H           -1.63359847054918        4.41801593374865        0.07572103438838
H           -0.49660486776915       -3.93450591870773        0.88474360713047
H           -0.50004185749665       -3.88852927224383       -0.90412511753769
H           -2.05540598657545       -3.63507777674291       -0.00393113912804
H            1.84220263533364       -3.22619992363365       -0.13526087071707
