25
 energy: 107.334354771752 xtb: 6.6.1 (8d0f1dd)
C            2.72430390415732        1.21652408396275        0.12433073550937
N            2.13008839608491       -0.09113040408143        0.06494077470827
C            2.72112266699978       -1.28449425004800       -0.02906670220324
N            1.76224234879829       -2.25602814544267       -0.03680104215899
C            0.53361303086903       -1.64790746995042        0.05665105947091
C            0.77974018720763       -0.28284569553925        0.12593992869311
C           -0.33021192985689        0.62845132696673        0.24505180194128
O           -0.21549277989744        1.87212230118335        0.30767044440179
N           -1.49915765265380       -0.02153638791676        0.30486680771979
C           -2.60997172134331        3.98408794976737       -0.29412137747010
C           -1.84912125974714       -1.24119078530701        0.09519331726190
O           -2.60476687866474        2.67009818589245       -0.10774683205419
N           -0.68986702607583       -2.15501126528200        0.05282456429494
C           -0.91787700301840       -3.56337157966860       -0.00071362660297
H            3.48884891019482        1.25791051937824        0.90168975657704
H            3.12327998681186        1.49985699250937       -0.85147814260541
H            1.93961936163585        1.93542469511592        0.37477025289780
H            3.75660927184276       -1.47031363353430       -0.13544449988992
H           -1.66351804898210        2.55839894585187        0.17744533722806
H           -3.50759249941579        4.36699652706275       -0.68253056250598
H           -1.74380491557820        4.63743452759592       -0.09317344254281
H           -0.46847376169821       -4.03362769464553        0.88000588090418
H           -0.46617691097949       -3.95890400175134       -0.91216691387179
H           -2.00603737274957       -3.70929286763706       -0.00377338843309
H            1.93065633633111       -3.24229929380510       -0.11936573582084
