25
 energy: 4.735007429891 xtb: 6.6.1 (8d0f1dd)
C            3.14715782080804        1.20971942306351        0.10370320100429
N            2.25488667247338        0.07743672552753        0.04879456335513
C            2.56096727552004       -1.28404786563721        0.01912280455968
N            1.35618777729351       -1.98265495642733       -0.01241669027203
C            0.31886343004569       -1.11288123327567        0.00936877982069
C            0.85622532527042        0.16316951412675        0.04682197238030
C            0.05175240797886        1.30189085844027        0.06134110053324
O            0.47530411989098        2.46495592281102        0.12882868068650
N           -1.36058118826078        1.07192666303515       -0.01316146200483
C           -2.09116896471162        2.34535532849623       -0.10270775614431
C           -1.96081596012472       -0.14923853636838       -0.04885414372376
O           -3.16654127902912       -0.23309357581525       -0.12259231307546
N           -1.04652408241996       -1.32172639240336       -0.00449911042474
C           -1.43620867921525       -2.72260830830173       -0.04443439058246
H            3.70118617138912        1.27180131427942        1.04879986695473
H            3.86878875347603        1.20100192044706       -0.71977130598781
H            2.52842565915451        2.10499272553731        0.01817783376902
H            3.54085913111924       -1.72144645212710        0.00319416497479
H           -1.27311313404234        3.06241368183262       -0.15472793403115
H           -2.77217732134334        2.41601022450562       -0.95502060080392
H           -2.69260908644658        2.53972226812956        0.79277995063962
H           -1.05342743977245       -3.26272287874783        0.83163835257086
H           -1.03214440945510       -3.22482054171265       -0.93389498970235
H           -2.52102712830596       -2.76178526980645       -0.06311384724990
H            1.28270854651064       -2.98817597099178       -0.05226406265055
