25
 energy: 102.689195629867 xtb: 6.6.1 (8d0f1dd)
C            2.82918942764818        1.23129043043952        0.11980694787436
N            2.13925828643604       -0.05211062291156        0.03917039165580
C            2.58466196187051       -1.28833210662470       -0.07348378964415
N            1.56576160882399       -2.17430187706532       -0.08111862915696
C            0.34587257105386       -1.48565357818894        0.00497603991767
C            0.77768993341535       -0.12969621055919        0.10153195489149
C           -0.13138936060787        0.87610762864980        0.38798318291561
O            0.07728864600674        2.03990857892653        0.68529765712559
N           -1.36308235625325        0.21980524406130        0.37626819601585
C           -2.05727675621097        3.47087219385753       -0.35822334660313
C           -2.47871309564038        0.34318811287418       -0.03953140107456
O           -3.38190785249441        1.00274015622412       -0.32428769455015
N           -0.84896635206588       -1.89997578919067        0.00767502784709
C           -1.10660933455982       -3.28674682647229       -0.00223437334447
H            3.58451861139565        1.22941186795287        0.89784030958527
H            3.30271225723493        1.53086128939342       -0.81728181636359
H            2.07787443130190        1.99190349205390        0.35956597158825
H            3.59327949889732       -1.61414222233171       -0.15808225616013
H           -1.35591086181243        2.81392843444162       -0.77110289300651
H           -2.97171359873618        3.65317381841267       -0.81670169394002
H           -1.77714316555148        3.84341286325853        0.58577674126493
H           -0.63390484112910       -3.71325673325230        0.88555639474598
H           -0.63499001726825       -3.68458999943295       -0.90059649808991
H           -2.19866861029595       -3.38794046236467       -0.01527909675968
H            1.65468719833117       -3.16953274543244       -0.16364422101150
