25
 energy: 125.923501069103 xtb: 6.6.1 (8d0f1dd)
C            2.72323915653996        1.23633286210079        0.14904216201778
N            2.12133761932866       -0.06972559279990        0.06149667964385
C            2.65247106610028       -1.28101199365219       -0.05606509922738
N            1.66652128652380       -2.21969015047637       -0.06157415843534
C            0.43746848358858       -1.59175539731538        0.03198729065205
C            0.75769615648346       -0.22677396553588        0.12724655334065
C           -0.27122471937853        0.70045023152194        0.30652012189512
O           -0.12907981838263        1.93775225269951        0.44324878550530
N           -1.47565454570711        0.07333031423082        0.30653218612919
C           -2.43979982695616        3.75552328475217       -0.35397190109057
C           -2.04142515665273       -1.00091193840918        0.01330535914904
O           -2.58103631051761        2.41757360129821       -0.19139232683076
N           -0.76153039155901       -2.08558769493926        0.01181690626187
C           -0.99068332732072       -3.46695926046760       -0.00202107139381
H            3.55330917009372        1.22664639032642        0.84861549091268
H            3.03429096610635        1.60701768670617       -0.83097072903252
H            1.94118454033295        1.90532649484640        0.52138188228965
H            3.67933752159281       -1.50723905274525       -0.15896096579715
H           -1.62826301325911        2.31774694301807       -0.00377750649294
H           -3.29119183406255        4.19308426432410       -0.74035983247506
H           -1.62014349228655        4.30282675347733        0.12058418001279
H           -0.51651555300353       -3.89958680420620        0.88677001192609
H           -0.52336968684830       -3.86244410387183       -0.90487076417931
H           -2.08062161807458       -3.58700939244881       -0.00650828349632
H            1.80697638347704       -3.20778667341916       -0.15442892229761
