25
 energy: -1.533481446688 xtb: 6.6.1 (8d0f1dd)
C            3.17910529130816        1.20267336577142        0.09816217274357
N            2.27096305462031        0.09223399448275        0.04285084543455
C            2.57445381273209       -1.26541774195345        0.02513183700413
N            1.37783715574435       -1.96486552462446       -0.00582909443395
C            0.34427110997797       -1.09557584557920        0.00487506739965
C            0.87395159419317        0.18685815140137        0.03434916640917
C            0.05790171303744        1.32116921618043        0.02826939999333
O            0.43806615698860        2.49826244114022        0.07544927957223
N           -1.35405495171234        1.03198826967723       -0.04449702001131
C           -2.14475839547073        2.26382300114209       -0.09033620756249
C           -1.93348233801429       -0.19934460261897       -0.05231660392268
O           -3.13737262204869       -0.33316846976320       -0.10070326049936
N           -1.01359339699876       -1.32127899069368       -0.01550184439755
C           -1.44737758506190       -2.70234698023688       -0.04983453489843
H            3.71250118622229        1.25739884315241        1.05512821935592
H            3.91770700996701        1.15132900569289       -0.70713555839979
H            2.58387016932508        2.10856152161645       -0.01883223589271
H            3.55353815497440       -1.69637155587784        0.01916852257906
H           -1.39681740862126        3.05370223851073       -0.11084705879510
H           -2.80459600626929        2.31141315453749       -0.95761356131350
H           -2.76674771760188        2.38148030872392        0.80124970464757
H           -1.09080395165956       -3.24620964425829        0.83179404093571
H           -1.06771817658388       -3.21317662577568       -0.94215931111638
H           -2.53416657341978       -2.69582094515511       -0.06754344243195
H            1.31055977404244       -2.96990684173631       -0.03692286233084
