25
 energy: -42.079398404658 gnorm: 0.003729286258 xtb: 6.6.1 (8d0f1dd)
C            3.31004188014141        1.23059980504541        0.01133329885246
N            2.36229253884854        0.14732461844547       -0.00020602705208
C            2.63574061348052       -1.14864464890241       -0.00456946744485
N            1.48825178487433       -1.86130388423578        0.00343359630538
C            0.44811702792259       -0.97931018154983        0.01340588020657
C            0.99694273363722        0.29261562037102        0.01227001424761
C            0.16079192742185        1.48185625039978       -0.00156425336914
O            0.55979075208999        2.62077496661918       -0.02058716623569
N           -1.19034310052382        1.14497379700115        0.00474647923253
C           -2.15029466655132        2.24247920814891        0.00019774417451
C           -1.76380260664401       -0.11467533684940        0.00656304336920
O           -2.94591023396357       -0.29361186797118        0.00638816956850
N           -0.87077892575767       -1.22696051763692        0.01361722977788
C           -1.38362394192815       -2.53923646691665        0.01069390875152
H            3.80970374779615        1.28502756968984        0.97961814462624
H            4.06167157132288        1.08440637335530       -0.76320744332617
H            2.77713814837857        2.16501405741555       -0.16181241794615
H            3.61941474002343       -1.57637410979188       -0.01581470630212
H           -1.59280158542345        3.17572305330841        0.00585012865182
H           -2.77745747881932        2.18146430646926       -0.88831803285576
H           -2.78937538021719        2.17735210060587        0.87959210390485
H           -1.72662125076718       -2.94103226949520        0.94424704092943
H           -1.79793920389529       -2.90557274120376       -0.91336642652524
H           -3.48976429226538       -4.95525812206605       -0.08786881569099
H            1.40924671491882       -2.86939303865607       -0.00347040795028
