72
 energy: -6.676277883664 xtb: 6.6.1 (8d0f1dd)
N           -1.53099281383339        2.79919244779096        2.25740272190596
C           -1.57632925008468        2.15926358677129        1.17604514451381
C           -2.76175068794484        2.06454686825338        0.25541725286899
C           -3.33406547942160        0.65522551759174        0.33328293678482
C           -4.32277057649924        0.25233938181564       -0.56748635162069
C           -4.87075247597315       -1.01559694506338       -0.52175675459134
O           -5.84089334677759       -1.48466781141380       -1.35810676162807
C           -6.41420918489544       -0.60275956860731       -2.28889968684824
C           -4.42169291763384       -1.93539362032892        0.45142233000853
O           -5.01602252618720       -3.16267009544451        0.41797281597521
C           -4.68504244400837       -4.09345250047787        1.41594791511403
C           -3.44523188940992       -1.53497905050451        1.34342585730652
C           -2.90816017024423       -0.25372717378395        1.28376106611500
C           -2.20596983588041        2.29981063538282       -1.17426490646033
C           -1.27438869737389        1.17844033263675       -1.67737707121003
C            0.00988824682109        1.10832815120691       -0.92592746087331
N            0.64592528399025       -0.08519482116171       -0.59253553113375
C            2.03458279304770       -0.07822795617627       -0.22891413265637
C            2.99685737414910       -0.56100302496682       -1.33276931995329
C            4.41310499445538       -0.44088059413920       -0.86449518380961
C            5.12976240772110        0.72569912401451       -1.05631218386203
C            6.43557380221629        0.83975478655368       -0.60101258577800
C            7.04133968785593       -0.21135253380084        0.06310690157413
O            8.31664626104458       -0.21414189342739        0.54126371123683
C            9.11125499299398        0.92575287295536        0.33698012396522
C            6.31189597907462       -1.40186719896903        0.28087924952130
O            6.98856648877457       -2.38399991202701        0.94053987903492
C            6.34871020721248       -3.61371343269267        1.15849326288944
C            5.01187123092710       -1.49626468813755       -0.17690046117804
C           -0.07041290870006       -1.33399304565873       -0.64740446184372
C           -3.89121449094885        3.08053453170098        0.58165189978986
C           -4.52285604506428        2.78113580822707        1.93994459781346
C           -3.41476719387312        4.53111185822867        0.54961792271839
H           -4.67730431002855        0.95022792275179       -1.30861564338909
H           -6.86686385293092        0.26709453957319       -1.79969766584941
H           -7.19117253203078       -1.17587017532394       -2.79298693640086
H           -5.68164524668370       -0.26237904108279       -3.02890792466175
H           -4.90363929303145       -3.70770068614039        2.41783836565088
H           -5.30990273084800       -4.96465833595857        1.22263855488968
H           -3.63050443043234       -4.38621349158872        1.36240146778484
H           -3.09403943397448       -2.21075451997059        2.10613594793783
H           -2.16457779332998        0.03221870763991        2.01048910472865
H           -3.04124122409724        2.39412459477372       -1.87150531277108
H           -1.65734351809980        3.24229543657909       -1.18718829038987
H           -1.82753841507688        0.23748178642729       -1.63559088820662
H           -1.03115090933827        1.38430241922227       -2.72987265688845
H           -0.70783347969742        1.65333359509207        0.70814530900585
H            0.65653703624591        1.97164187525722       -0.99976736756946
H            2.17577647143540       -0.69512484253513        0.67168865724608
H            2.32292644594722        0.94333146384344        0.03296910950828
H            2.84764911130746        0.05244117406196       -2.22263621605605
H            2.75704097541384       -1.59638633397223       -1.57118991759017
H            4.68022255137824        1.55855647092840       -1.57580995964258
H            6.97469773430146        1.75669066352254       -0.77944566100323
H            8.69062450310479        1.80802627664952        0.83118930304741
H            9.25018444703409        1.13835019691732       -0.72846662619313
H           10.07658235966971        0.69274960487932        0.78311974389978
H            7.08223298564643       -4.23909770108960        1.66662284756211
H            5.46597844808840       -3.50185713208261        1.79693055091768
H            6.05805355448746       -4.09110133427370        0.21645781998033
H            4.44460170793735       -2.40036460231458       -0.01844874103306
H           -0.24064559727632       -1.65933303734052       -1.67680882993152
H           -1.05084426689212       -1.23951523751825       -0.16766935357254
H            0.50855093748808       -2.09650271948441       -0.12684694301946
H           -4.66258804108222        2.96158890976746       -0.18765171540954
H           -3.77922939732114        2.90209630238396        2.71940106480244
H           -4.90822242793564        1.76487893588601        1.97406326395480
H           -5.34579931026241        3.46751705343127        2.12746934796984
H           -2.62319413906900        4.67911076635235        1.27717556378250
H           -3.05197943546021        4.81417132346779       -0.43519833222351
H           -4.24278601219343        5.19042447662296        0.80378923561384
H           -0.64125918018355        2.77417605266479        2.75327560232071
