72
 energy: 42.038181917275 xtb: 6.6.1 (8d0f1dd)
N           -2.02312363271677        2.76892524171985        2.53938012075245
C           -1.90609528336187        2.29618170215385        1.37675594068903
C           -2.97863060955535        2.09969295088251        0.35277280632725
C           -3.54196827322149        0.69556311534872        0.42361551095597
C           -4.51993407374060        0.29760099522096       -0.49149047919284
C           -5.07820635951240       -0.96581858462931       -0.44557950363836
O           -6.04708926044603       -1.42804293116227       -1.28998104280997
C           -6.58416262333925       -0.54524891595306       -2.24223880031767
C           -4.64076815413117       -1.88345457474827        0.53553780312958
O           -5.24467500161769       -3.10782404232667        0.50852482035873
C           -4.88469463987620       -4.03932627423801        1.49580817330490
C           -3.66248443793080       -1.48733294328336        1.43006432638324
C           -3.11660194773997       -0.21097445397708        1.37189684751469
C           -2.37719857548152        2.28601221205404       -1.04911552231077
C           -1.56736740575551        1.09595773258356       -1.60321062494640
C           -0.24461821176942        0.78976375752681       -0.95524879244569
N            0.29821300467370       -0.31717753401335       -0.73024929132395
C            2.62346211098774       -0.28760137522983       -0.92311985815185
C            3.67912655937598       -0.68549264331136       -1.83951079814542
C            4.95789690592442       -0.48380012621240       -1.07522152064071
C            5.63876878433413        0.70631154173013       -1.16775841595505
C            6.89649028862583        0.82255734970798       -0.60484600021818
C            7.44903348429077       -0.23008857018879        0.09729438694758
O            8.69494223158762       -0.24300292859301        0.64812986088460
C            9.50018924089082        0.89419506641976        0.49475117792085
C            6.69834587720612       -1.41090490610629        0.28101981976996
O            7.32711205222258       -2.39030489186693        0.98998303115793
C            6.65699406682178       -3.60672443814150        1.19568968209408
C            5.44310921234225       -1.51362927915224       -0.27748051189722
C           -0.46991183459076       -1.54149263973630       -0.89353913419680
C           -4.11804938794228        3.12157217381835        0.58256320254672
C           -4.79996980494817        2.83761300327800        1.91718556913492
C           -3.62128811205600        4.56589812523584        0.55786924677017
H           -4.86041698410654        0.99489109866441       -1.24089549814440
H           -7.03893203125622        0.33574045719304       -1.77427617357430
H           -7.35438849420639       -1.10714153209373       -2.76911391756613
H           -5.82681195447813       -0.21941425600137       -2.96150014963378
H           -5.10087654161765       -3.66340878408304        2.50233973531369
H           -5.49295121678601       -4.92339850533227        1.30746369283599
H           -3.82425259912227       -4.30579824819803        1.42884074723011
H           -3.32031019079176       -2.15990932696965        2.19860238494607
H           -2.37159717518145        0.07638653183091        2.09548193993444
H           -3.21103558817774        2.44286117609127       -1.74636445652713
H           -1.76466932843527        3.19125822344803       -1.03511785346845
H           -2.21673588188572        0.21622056418273       -1.59217482940849
H           -1.31637228543891        1.37697330271475       -2.66751121111549
H           -0.94179083059688        2.13803545902829        0.93380558039247
H            0.37358867874966        1.69617588498843       -0.83914414515253
H            2.59259945472853       -0.86760377603790        0.02000710997439
H            2.63600328523907        0.76498581192384       -0.71344469565359
H            3.64553811084070       -0.04177107906700       -2.70545738172350
H            3.48976893401425       -1.72173892342549       -2.07332849959969
H            5.21525487544770        1.53466331546062       -1.71465712271190
H            7.45302149798794        1.73191705221694       -0.75378886026080
H            9.05133364202073        1.77839408044519        0.96185060483248
H            9.70099059550953        1.10974945200371       -0.56144815154053
H           10.43489994374223        0.65679038975356        1.00131451198204
H            7.35727765010188       -4.22714184220917        1.75535505192622
H            5.74254859076439       -3.47334424541828        1.78317845791141
H            6.40958488005562       -4.10216031429971        0.24983305373150
H            4.84700317820492       -2.40583932195267       -0.14242029398829
H           -0.44558091239711       -1.88299266913503       -1.92306417822611
H           -1.50710601132583       -1.34642788326329       -0.61364878385507
H           -0.04848389920195       -2.32869896047100       -0.26345691616554
H           -4.85273864634480        3.00042277884166       -0.22320324535591
H           -4.07076189517539        2.91641399916338        2.71248512079569
H           -5.22097696376702        1.83550070263461        1.93136680967281
H           -5.59725347393204        3.55777128922562        2.09244440179874
H           -2.88233293895483        4.71388962735636        1.33794340048668
H           -3.18761004115870        4.82792810141845       -0.40405465078513
H           -4.45590143266765        5.23924355061223        0.74865466878714
H           -1.10712311307411        2.79503681304145        3.00133368545833
