72
 energy: 22.900857723053 xtb: 6.6.1 (8d0f1dd)
N           -2.16687832051781        2.17758188360253        2.54682038041172
C           -2.12358496725073        2.50070827238601        1.33504803867285
C           -3.21324973308117        2.16059121563576        0.35294314466848
C           -3.78719147548323        0.75728693443401        0.50505483395492
C           -4.77338078409453        0.35882459879138       -0.40289212652367
C           -5.33937315588559       -0.89908497552448       -0.34953605772154
O           -6.30886302332466       -1.36224874348151       -1.20055770785563
C           -6.81624812946098       -0.49513100286507       -2.17963541298724
C           -4.91960336143936       -1.81163847084969        0.64053573412539
O           -5.53272801751888       -3.03421355662740        0.61873181176863
C           -5.15627719437628       -3.97827871315453        1.58802654425665
C           -3.94915511483598       -1.41521710256239        1.54020249869226
C           -3.38901759531217       -0.14648538771976        1.47064033085632
C           -2.68539914001771        2.33933340789325       -1.09470274982867
C           -1.96116225760646        1.10213427890432       -1.63728683961723
C           -0.86026934920565        0.64063225356299       -0.72774571139192
N           -0.52744948216859       -0.51864427846635       -0.38396932397207
C            3.95710433465329       -0.21436012421381       -1.10800855953249
C            4.60836837423600       -0.80092766204938       -2.32304880471765
C            5.45844160216731       -0.42578784979127       -1.10876384994671
C            6.28453634496321        0.76156749973027       -1.20635792786202
C            7.48753162191278        0.83140348751259       -0.57769395454982
C            7.97622852286140       -0.24070434623401        0.17067584438802
O            9.18992874299683       -0.28083267229996        0.78973568483941
C           10.01610667761048        0.84449578356700        0.69782679883685
C            7.18713060996496       -1.41847378183988        0.31900383639562
O            7.75881077498018       -2.39290364937439        1.08026502912421
C            7.06198361558817       -3.60014642238382        1.24991325746698
C            5.98122121693404       -1.51353343090705       -0.29199769569843
C           -1.20037824556820       -1.70289653026527       -0.83658014099173
C           -4.36332772297024        3.19315534076584        0.60707677342735
C           -5.08674806309785        2.90533164151491        1.91823319523286
C           -3.86790208082331        4.63818480695682        0.59223500448285
H           -5.10545656379136        1.04894765565285       -1.16224740667564
H           -7.27789583006939        0.39604998307126       -1.73805383550060
H           -7.58143450532438       -1.06725534672452       -2.70419070964968
H           -6.04468426089487       -0.18773677089929       -2.89497869492435
H           -5.37425231797651       -3.62391654556904        2.60120050893233
H           -5.75530701573065       -4.86274373346679        1.37757889870454
H           -4.09448202599686       -4.23795881275987        1.51791954935273
H           -3.61768381380180       -2.08428752349713        2.31780869135423
H           -2.64756598061581        0.13060715310088        2.19877005270028
H           -3.51707693857193        2.57480446249495       -1.76404179491488
H           -2.00256435372124        3.19118697250748       -1.12914124251751
H           -2.67059090963767        0.29102777694870       -1.80218819555377
H           -1.50767863833731        1.35112535700346       -2.60375111123695
H           -1.35500287311559        3.17034900607063        0.91457134126846
H           -0.22976150184771        1.42712926921263       -0.32453208472811
H            3.38626506496949       -0.85725174123394       -0.45415834877272
H            3.62698376935851        0.81406228754312       -1.14658211971993
H            4.70316662052091       -0.18739773688378       -3.20805248230457
H            4.46855488446771       -1.85393285516502       -2.51759626730507
H            5.92141861972795        1.58556523648778       -1.79791469399396
H            8.07532700756217        1.72755778549132       -0.69058442791371
H            9.53755856037358        1.73432183029129        1.12330292371767
H           10.29932676089593        1.05350861679945       -0.34025930879461
H           10.90172596788170        0.59095290996859        1.28001454096861
H            7.72315841115964       -4.21221197170665        1.85896398862454
H            6.11222915065049       -3.45581099986418        1.77735475961979
H            6.87049854271925       -4.11176916929723        0.29919194713748
H            5.36724124329814       -2.39239818727180       -0.19885653628169
H           -0.93050463216944       -1.91268553647308       -1.87426321382860
H           -2.29130535355903       -1.64749718864559       -0.76755748279353
H           -0.84831053374462       -2.52611076462932       -0.21539392167796
H           -5.08904390303343        3.08426133618239       -0.20502654785888
H           -4.37816163510391        2.88288873822648        2.74144789186820
H           -5.59159989734211        1.94352528296198        1.87369466515983
H           -5.82325615173426        3.67963142290375        2.12165021808016
H           -3.20891569834096        4.82472674984471        1.43598446666427
H           -3.33878738784259        4.87939497161443       -0.32677039398964
H           -4.72196308549174        5.30796121329918        0.67227950950960
H           -1.40098621027589        2.51654449462445        3.12541913780360
