72
 energy: 42.487788935789 xtb: 6.6.1 (8d0f1dd)
N           -2.10964140478469        2.68464403819416        2.59063296532649
C           -1.96620448672261        2.32947970540394        1.39069686720108
C           -3.02724007648797        2.10614224655651        0.36327598024709
C           -3.58855256514297        0.70374301681841        0.44177509389997
C           -4.56436241195409        0.30678285420058       -0.47562938851693
C           -5.12425506113492       -0.95530534511567       -0.42911429411786
O           -6.09309021713036       -1.41638719279286       -1.27462506765280
C           -6.62284833472685       -0.53491044407925       -2.23174351655068
C           -4.68942783804139       -1.87194248740440        0.55389921221648
O           -5.29553056023187       -3.09556814824031        0.52817480547139
C           -4.93020468373389       -4.02877801824981        1.51182093028111
C           -3.71110858063160       -1.47682289148193        1.44883889705958
C           -3.16320792600761       -0.20161545416925        1.39029227283973
C           -2.43345070442729        2.28235905084306       -1.04222930546163
C           -1.63539043414208        1.08472456943260       -1.58478495282600
C           -0.32896847051225        0.77281355705965       -0.91982149563838
N            0.17745152013370       -0.36102520224205       -0.69902126610819
C            2.82855694389666       -0.28882845016781       -1.01351937921830
C            3.84866462209108       -0.70708049449536       -1.93609133189888
C            5.08617920019436       -0.48921508565288       -1.11401779594222
C            5.75484830335755        0.70725504543734       -1.18874989683921
C            7.00109343999789        0.82117129374528       -0.60627131550977
C            7.54078014248242       -0.23287539943785        0.10381253725300
O            8.77928481294030       -0.25076144454004        0.66877284496819
C            9.58740658092955        0.88510090202564        0.52960411334214
C            6.78506824095596       -1.41170426652380        0.28247854700151
O            7.40260281842227       -2.39108306250178        0.99825563789207
C            6.72528681280320       -3.60499725732760        1.20221246093489
C            5.54028730709661       -1.51494153817118       -0.29342960652927
C           -0.59298321938181       -1.57444576195260       -0.89881556677038
C           -4.16644187853666        3.13103173803970        0.58341381019327
C           -4.85956479677225        2.84976696360088        1.91166579985047
C           -3.66566303978285        4.57444451178686        0.56201142805280
H           -4.90130813812280        1.00401117118617       -1.22673198552189
H           -7.07808109823799        0.34823451780784       -1.76813143725725
H           -7.39217925505045       -1.09654138803366       -2.76031897320052
H           -5.86168796844519       -0.21254291701831       -2.94867752264265
H           -5.14595992550099       -3.65609680767775        2.51959801887719
H           -5.53599511724673       -4.91405834462879        1.32163447237011
H           -3.86910819602625       -4.29220324465229        1.44305036971066
H           -3.37062461667125       -2.14870419750047        2.21869351564310
H           -2.41798690089516        0.08491290506863        2.11342411557188
H           -3.26334539222668        2.44588460285239       -1.74637361619541
H           -1.81048142014155        3.18093556396100       -1.03302002250811
H           -2.29870052139248        0.21485623979479       -1.59318980784477
H           -1.37455320999814        1.36395759731626       -2.64690209857640
H           -0.99553573046340        2.32357651998334        0.91467288842222
H            0.29408567512413        1.65146683044221       -0.74794339839839
H            2.68013165834231       -0.87788865973055       -0.10670543697728
H            2.75974866139158        0.76669534616854       -0.85881504038404
H            3.83142922506988       -0.05886982260591       -2.79354677404215
H            3.65665930119110       -1.74241014228091       -2.15948899127208
H            5.33610312972723        1.53325316764318       -1.74219488822173
H            7.56149246753203        1.72715670799335       -0.75365878194259
H            9.13237875342970        1.76974417586726        0.99063066641793
H            9.80211667727368        1.10198741477809       -0.52381559345635
H           10.51274539266822        0.64183012406866        1.05099341942063
H            7.41937346906294       -4.22251315199500        1.77189557427832
H            5.80470280001144       -3.46898290250923        1.77995961261349
H            6.48704953253660       -4.10612093755585        0.25684519323872
H            4.93803200817984       -2.40438921048193       -0.16406683839991
H           -0.52139433355682       -1.89930818756505       -1.94308968822288
H           -1.64230810931304       -1.40534009090196       -0.64593936213482
H           -0.18147333098650       -2.37397925440904       -0.26669388588036
H           -4.89443836852071        3.01145388111038       -0.22918769057070
H           -4.13512543431128        2.91685083897022        2.71335531063251
H           -5.28936447597874        1.85137104927021        1.91916310294602
H           -5.65177386059649        3.57739283124317        2.08165059394657
H           -2.93872691838344        4.72700963315060        1.35334252079513
H           -3.21618480617021        4.83361681221527       -0.39357495342403
H           -4.50355692845470        5.24818794039993        0.73699291159294
H           -1.19896044784142        2.76891525168877        3.05423455488221
