72
 energy: 41.330471307473 xtb: 6.6.1 (8d0f1dd)
N           -2.16534112270456        2.55872829528991        2.61918928366055
C           -2.01526123919690        2.37450065840140        1.38451434138222
C           -3.07205637069976        2.11493438436596        0.36665492843979
C           -3.63251679609213        0.71307063013636        0.45782328952876
C           -4.60794983637243        0.31631064766828       -0.46024848961531
C           -5.17014603025170       -0.94444680700013       -0.41246592633399
O           -6.13889935802765       -1.40500792515338       -1.25898168476149
C           -6.66167590127827       -0.52548105252120       -2.22108003396392
C           -4.73830525206419       -1.86021613304098        0.57233958264060
O           -5.34636172764514       -3.08324177352538        0.54768820356550
C           -4.97593084014262       -4.01875048851776        1.52732937983513
C           -3.76012293881714       -1.46546782386724        1.46753893956041
C           -3.20978558699825       -0.19139769440306        1.40794121218475
C           -2.49076845824967        2.29048368275796       -1.04435961004219
C           -1.70652184106867        1.08963745369830       -1.58548433729914
C           -0.42736254438436        0.76364216947663       -0.88576634766849
N            0.03150097165461       -0.37962412540233       -0.62874976323711
C            3.04427867537741       -0.27556809768684       -1.07492402102024
C            4.01879622756343       -0.72316079687257       -2.02105916324816
C            5.21143193352757       -0.49457649261456       -1.15143124503500
C            5.87094781226219        0.70939376678303       -1.20796464482412
C            7.10573758193452        0.81988030531054       -0.60885629907445
C            7.63265643290658       -0.23544746645537        0.11002551305793
O            8.86419525601888       -0.25860149563518        0.68932107214404
C            9.67457340359081        0.87581646944872        0.56434838445840
C            6.87193594457286       -1.41253208075656        0.28370179188024
O            7.47819693719728       -2.39194395951547        1.00685636813733
C            6.79341492291632       -3.60297691984121        1.20895161283736
C            5.63750469282090       -1.51584634659033       -0.30705891307099
C           -0.72285930905389       -1.58925982207180       -0.88602268285377
C           -4.21333778526475        3.14115081846397        0.58371787661317
C           -4.91677623383194        2.86129725784912        1.90587792674849
C           -3.70939232807413        4.58398003761864        0.56664089354205
H           -4.94184715062673        1.01266213631305       -1.21349956171308
H           -7.11753979052312        0.35956713456976       -1.76163476887741
H           -7.43005324603062       -1.08746518042619       -2.75076790322633
H           -5.89697306714607       -0.20641748828357       -2.93604095371987
H           -5.19141391765640       -3.64979863058046        2.53642344855950
H           -5.57926883518239       -4.90503500927535        1.33451356690735
H           -3.91426543552711       -4.27964701946582        1.45709559708950
H           -3.42153722586369       -2.13677739915077        2.23883092341541
H           -2.46478928045219        0.09343450472462        2.13095858971608
H           -3.31607853569477        2.46889984170621       -1.74926130126158
H           -1.85537407407432        3.17782597904309       -1.03510497701998
H           -2.37447342188899        0.22096295531814       -1.61990972297334
H           -1.42542243543204        1.35569667854997       -2.63646005357416
H           -1.05250036153398        2.51171081049846        0.91764625104736
H            0.20454258585319        1.62336175104875       -0.65012033629982
H            2.78120384781700       -0.88923402153175       -0.22662951176113
H            2.90412289483369        0.77449614938925       -0.96120883138403
H            4.01417742198161       -0.07818033227649       -2.87831503475166
H            3.82407863798551       -1.75673673090788       -2.23230993172650
H            5.45700984820852        1.53384729758970       -1.76671605300362
H            7.66972729428834        1.72224205421757       -0.75657382100856
H            9.21309210675502        1.76094117703836        1.01898064312126
H            9.90325242049367        1.09401516144462       -0.48610828966950
H           10.59049465343645        0.62697671804335        1.10041756604619
H            7.48095384136088       -4.21789145952866        1.78858230534037
H            5.86663236126429       -3.46424661366314        1.77684080018611
H            6.56428193760944       -4.10985145799376        0.26419779856762
H            5.02979756113795       -2.40263602216684       -0.18292121389564
H           -0.60775911473717       -1.89984989853101       -1.92902909157766
H           -1.78335898581534       -1.46294308794056       -0.66859482160773
H           -0.32075681111993       -2.38657282342280       -0.25509255090179
H           -4.93629751497253        3.02376591025763       -0.23418971518896
H           -4.19711112167945        2.91534424101385        2.71422017061666
H           -5.35630751785071        1.86703679679950        1.90639091356272
H           -5.70419162444818        3.59651196515376        2.07204838062839
H           -2.99465755782569        4.74064041381933        1.36917680251415
H           -3.24385862146993        4.84095717036970       -0.38195685793569
H           -4.55076408533469        5.25769869338905        0.72549141026056
H           -1.27898022566999        2.72409667175259        3.10203822446997
