72
 energy: -5.845349741928 xtb: 6.6.1 (8d0f1dd)
N           -1.57971574633956        2.82420822858546        2.28027805518669
C           -1.60953748178408        2.16987521330203        1.20591205848673
C           -2.78140546209549        2.06919717937095        0.26809182825324
C           -3.35542717228214        0.66109472511768        0.34314741110203
C           -4.34386133394923        0.25825094385636       -0.55828386385120
C           -4.89351974349143       -1.00942195484296       -0.51263915722725
O           -5.86346983670821       -1.47850517531175       -1.35076529699413
C           -6.43240358199281       -0.59532356303842       -2.28322380454532
C           -4.44591092537117       -1.92909082450629        0.46094328785904
O           -5.04134265565044       -3.15697758319848        0.42763986304164
C           -4.70676937215284       -4.08650417655086        1.42526490542787
C           -3.46904930343982       -1.52870308741687        1.35313232795950
C           -2.93084532958072       -0.24810323055531        1.29347175676948
C           -2.21714317243104        2.30002169399261       -1.15702280523891
C           -1.30023237290409        1.17079557029528       -1.67633688118789
C            0.01117077528320        1.06933588420782       -0.96171039227134
N            0.66686764441542       -0.13201240515976       -0.65802075058149
C            2.06842254534844       -0.11820617971120       -0.31169981464940
C            3.06219428658237       -0.57976308063350       -1.39198924159829
C            4.46873325885005       -0.44762977104460       -0.88903260363553
C            5.18437610108078        0.72084025444279       -1.06873451608855
C            6.48531718474157        0.83663653230492       -0.59950304762968
C            7.08667929678990       -0.21431465024673        0.06815982114001
O            8.35882907295340       -0.21670747935728        0.55419514711889
C            9.15429875821992        0.92376282797911        0.35411238480821
C            6.35467814050635       -1.40366245159447        0.28140882619645
O            7.02557126277018       -2.38513629825625        0.94870782153115
C            6.38202152798196       -3.61300372095239        1.16373702349253
C            5.05896322411750       -1.49912241102929       -0.18925347227075
C           -0.08476861228810       -1.36510971994528       -0.68763634319814
C           -3.91533940471726        3.08425769533318        0.58100049181775
C           -4.55381806497123        2.78708584668628        1.93662542296381
C           -3.43763413601966        4.53410738491565        0.54989818743708
H           -4.69704717109750        0.95546029717321       -1.30105803524574
H           -6.88509161583085        0.27583734611433       -1.79601101880958
H           -7.20836492868316       -1.16576344890402       -2.79192436904359
H           -5.69602431398127       -0.25595941539484       -3.01944955031841
H           -4.92500889706590       -3.70096179251717        2.42750642928014
H           -5.32903974070089       -4.96031199359571        1.23478675154214
H           -3.65111271299717       -4.37504232847120        1.36998188169833
H           -3.11871628461269       -2.20437550292035        2.11613791453938
H           -2.18663553412952        0.03860051613675        2.01869809093576
H           -3.05392522007793        2.40612630490181       -1.85276912413982
H           -1.66226643284395        3.23859643132853       -1.16628525604175
H           -1.86639556055747        0.23599701409115       -1.62522188299004
H           -1.06652153466396        1.38661904369678       -2.73376506834555
H           -0.73704372714423        1.65127362863360        0.78008386826295
H            0.66803569897643        1.93057319188705       -1.05787238832316
H            2.22403314174645       -0.72274548082388        0.60152844392139
H            2.34727001042308        0.90715531535336       -0.04912772663545
H            2.93007681170573        0.03834557325374       -2.28039523918152
H            2.83410987659076       -1.61549526685632       -1.63324469459605
H            4.73882789117738        1.55389441595040       -1.59078469102090
H            7.02587676646501        1.75429887059447       -0.77013352200515
H            8.73055478201383        1.80603575223765        0.84548965051429
H            9.29965091242289        1.13640428896500       -0.71047333270849
H           10.11802928970941        0.69402074487117        0.80527447581723
H            7.11012701427917       -4.24065700457076        1.67808378385630
H            5.49517344969808       -3.49669174472005        1.79520625635494
H            6.09617067702691       -4.08967670685772        0.21988585734142
H            4.48880577544206       -2.40163586047033       -0.03273466765796
H           -0.25848047767842       -1.70144132033144       -1.70775144350752
H           -1.07231530215983       -1.22302912076410       -0.23367703929112
H            0.45350025873057       -2.13743830052703       -0.13657297261844
H           -4.68239801060059        2.96515587114044       -0.19244749166923
H           -3.81026051713219        2.90384044628351        2.71475224746200
H           -4.94327724229618        1.77237145776039        1.97029043012825
H           -5.37333241338451        3.47744735361629        2.12628060795412
H           -2.65122184074294        4.67657991196659        1.28311985744271
H           -3.06667939575072        4.81362757437595       -0.43272539204719
H           -4.26505153276755        5.19734336023014        0.79790936264351
H           -0.69270326723010        2.78124241484551        2.77988864286205
