72
 energy: 23.647580606622 xtb: 6.6.1 (8d0f1dd)
N           -1.86701250273113        2.84714228302090        2.44534507142811
C           -1.80910161793923        2.24881694930919        1.33767613600795
C           -2.90227608216369        2.08996653428924        0.32801951064444
C           -3.47010269372054        0.68400805679490        0.39337852586694
C           -4.45265427162199        0.28398183857697       -0.51609982526852
C           -5.00827665274682       -0.98128521608617       -0.47032089408922
O           -5.97839681951441       -1.44645077670953       -1.31303469735326
C           -6.52650107601353       -0.56257310716010       -2.25790029625716
C           -4.56721487948885       -1.89973657760815        0.50752111481961
O           -5.16844308850151       -3.12673326017555        0.47834786185578
C           -4.81702480450713       -4.05547649018036        1.47051680379717
C           -3.58916422439888       -1.50206983189545        1.40114205546318
C           -3.04626036967559       -0.22421956703890        1.34241791231915
C           -2.29420615075733        2.28847335292072       -1.07365470280182
C           -1.44433749456892        1.11325101099374       -1.63633584528537
C           -0.09993194069307        0.87643787763349       -0.97666171681226
N            0.63094470631256       -0.29766709945058       -0.81987857081526
C            2.23393514807977       -0.26849478614294       -0.72630035158941
C            3.39145725290350       -0.65049004472485       -1.67237677362495
C            4.74196654804379       -0.46787172745757       -0.99918961376967
C            5.45782401715036        0.70550935503997       -1.13124854761444
C            6.73590402697521        0.82368867265089       -0.60355446835935
C            7.31120171765841       -0.22542624911224        0.08734239223088
O            8.56639364851579       -0.23128175866864        0.61498286439801
C            9.36954338164410        0.90762387234138        0.44175117648840
C            6.56604270889856       -1.40970455125125        0.27746021590512
O            7.21163669844565       -2.38793813504994        0.97447170493113
C            6.55412953263356       -3.60948257775500        1.18483124061490
C            5.29161121637642       -1.50813484208204       -0.24924698386899
C           -0.23156452963747       -1.49282626541146       -0.86286575142708
C           -4.04292617094031        3.10745036830024        0.58116819320023
C           -4.70888624827816        2.81937327780131        1.92499334732858
C           -3.55401517367834        4.55385466368810        0.55359913489918
H           -4.79862143381278        0.98112712599635       -1.26302477462701
H           -6.98080515669624        0.31497025232089       -1.78320622713348
H           -7.29826660069002       -1.12623690788916       -2.78066864862966
H           -5.77573365551256       -0.23128589942794       -2.98173327682116
H           -5.03388020717485       -3.67517293306809        2.47535332048087
H           -5.42944139924174       -4.93718648830370        1.28386691273617
H           -3.75774006629237       -4.32828868354173        1.40744867009784
H           -3.24462198679591       -2.17573456432334        2.16817459946973
H           -2.30293401031733        0.06416677993566        2.06738234482771
H           -3.13321996123760        2.44642492272248       -1.76239629725431
H           -1.70542751598603        3.20834468064471       -1.06591874961205
H           -2.07734383563244        0.21987965704812       -1.60013085310009
H           -1.23284281896717        1.38982931549009       -2.71005713474966
H           -0.88156883874226        1.87019988942989        0.97891094710934
H            0.51093404570803        1.77836576211823       -1.00930903923611
H            2.42983405530611       -0.83091929054043        0.22628153931919
H            2.48216260915634        0.77055595051936       -0.46972196674463
H            3.35813591289837       -0.01452663625505       -2.55044381245801
H            3.23131576056316       -1.68951495865062       -1.92428769443522
H            5.03432353401529        1.53993770820666       -1.66923166889343
H            7.28729864460949        1.73858889977219       -0.75324569982241
H            8.93106530746291        1.79127426063476        0.91814357891068
H            9.54874455026549        1.12065619216590       -0.61816556375716
H           10.31784482094275        0.67743943929586        0.92535057827818
H            7.26424641759347       -4.23368421868771        1.72857029721092
H            5.64976677564780       -3.48064239125146        1.78805520494513
H            6.29291081088429       -4.09644425762088        0.23880434636133
H            4.71220896766127       -2.40868143190529       -0.10576370760859
H           -0.35103825883825       -1.86353838010709       -1.86762027674841
H           -1.25087045400618       -1.23826798367927       -0.53113863861057
H            0.15876259837861       -2.30473518878980       -0.23174032655234
H           -4.78918350476721        2.98583927540386       -0.21276963485495
H           -3.97297641984945        2.91385609683476        2.71173342131662
H           -5.11786879365876        1.81219455471770        1.94855316556844
H           -5.51423755612299        3.52844000523700        2.10931498573148
H           -2.79703849041066        4.69483018757189        1.31644628557579
H           -3.14373219421551        4.82025428884179       -0.41699250571527
H           -4.38465201717316        5.22568778166150        0.76695641524447
H           -0.95933006276289        2.80715551851920        2.91764165984730
