72
 energy: 42.566883250809 xtb: 6.6.1 (8d0f1dd)
N           -2.07275542490299        2.73560453876471        2.56824135913748
C           -1.93905481684183        2.31343814311745        1.38754320578987
C           -3.00369313522166        2.10304666108284        0.35918131609804
C           -3.56572486000268        0.69965430460703        0.43307761773446
C           -4.54236511699748        0.30213795617406       -0.48344334935098
C           -5.10139222204370       -0.96069231044879       -0.43740423344997
O           -6.07016072540037       -1.42229518121567       -1.28243624114185
C           -6.60351269042954       -0.54003408152489       -2.23706772857002
C           -4.66529481321325       -1.87791049722509        0.54464503757956
O           -5.27019963043699       -3.10196067875195        0.51835795367243
C           -4.90742818168927       -4.03424735827165        1.50390673620625
C           -3.68702028685061       -1.48229912004938        1.43937288363945
C           -3.14020980379736       -0.20644619318505        1.38123911634649
C           -2.40426994676189        2.28273387326246       -1.04426067532935
C           -1.59901554612239        1.08748043065231       -1.59015066813486
C           -0.28487325061403        0.77133845591610       -0.93094113991665
N            0.24156235168549       -0.35214110657057       -0.72001450826538
C            2.72729589643097       -0.28655816695596       -0.96796470440035
C            3.76417653747678       -0.69520792430307       -1.88746762546468
C            5.02263970997305       -0.48579272705348       -1.09366026659600
C            5.69722252662725        0.70721964429101       -1.17812837047286
C            6.94926136441405        0.82197586815966       -0.60549380792730
C            7.49512604171312       -0.23153814803728        0.10057157506981
O            8.73723637942578       -0.24695418462476        0.65858656262145
C            9.54398378528454        0.88956829294162        0.51219091266276
C            6.74198833843290       -1.41140578635183        0.28174581452175
O            7.36497533099161       -2.39072956371318        0.99421006793652
C            6.69112524079418       -3.60579779937531        1.19933044457663
C            5.49199748291157       -1.51429621007374       -0.28560581996107
C           -0.53492130064353       -1.56197079904874       -0.90302122310047
C           -4.14289171370780        3.12635856573120        0.58279794368856
C           -4.83019224535881        2.84375352309545        1.91440675092402
C           -3.64369169386844        4.57010593261654        0.55973144961745
H           -4.88086776027311        0.99937748942098       -1.23381966379474
H           -7.05832419568678        0.34205812066779       -1.77116064327664
H           -7.37338714249892       -1.10157680263163       -2.76489665424568
H           -5.84418552303235       -0.21597369811986       -2.95509784539135
H           -5.12328025594678       -3.65985881196545        2.51105270780599
H           -5.51436704165558       -4.91906021669100        1.31496871105686
H           -3.84664127438779       -4.29910124879035        1.43597063810473
H           -3.34553550725647       -2.15468894113833        2.20833880280238
H           -2.39481994730159        0.08036989394870        2.10445064412055
H           -3.23668568120447        2.44121061843349       -1.74471204489196
H           -1.78757732765958        3.18547162948333       -1.03329850869156
H           -2.25814296314110        0.21524120185729       -1.59114824893148
H           -1.34397046619049        1.37033495204571       -2.65385854272214
H           -0.97127831135673        2.22943407575033        0.92264188433542
H            0.33783103349739        1.66502801304023       -0.79275584456429
H            2.63815614449769       -0.87385739787519       -0.04319904321136
H            2.69608756067552        0.76826196395148       -0.78649005479492
H            3.73750372481515       -0.05038993767340       -2.75037001078064
H            3.57304819461568       -1.73114270678681       -2.11665415578429
H            5.27590813205221        1.53399832933506       -1.72864326249678
H            7.50759404114163        1.72964436998919       -0.75349183158522
H            9.09213362969638        1.77401088926653        0.97629019426477
H            9.75158324807512        1.10573414939646       -0.54267538459252
H           10.47408786180100        0.64921977293583        1.02604838946194
H            7.38829906715659       -4.22470551809185        1.76409906310362
H            5.77363226594970       -3.47093429338721        1.78196414505543
H            6.44822227723038       -4.10418994256395        0.25379607878089
H            4.89253174678102       -2.40498045791818       -0.15400990853994
H           -0.48358279172945       -1.89551374396742       -1.93815586381580
H           -1.57721991552692       -1.37258206310445       -0.63614494644871
H           -0.12122818433474       -2.34878458903150       -0.26882046603654
H           -4.87417704501401        3.00598316411230       -0.22637133861214
H           -4.10312493980423        2.91687259561769        2.71264932079439
H           -5.25524172732204        1.84337093858768        1.92545435043013
H           -5.62484982075701        3.56750280439573        2.08728640846798
H           -2.91055156790630        4.72009423652263        1.34536044602112
H           -3.20208947285127        4.83071662393110       -0.39906304728604
H           -4.47963055217726        5.24393222792036        0.74295081554787
H           -1.15622897900624        2.78537291501598        3.02864748415363
