72
 energy: 38.642709644031 xtb: 6.6.1 (8d0f1dd)
N           -1.92260474053826        2.82545205549170        2.48130086992748
C           -1.84531312673971        2.26625143410013        1.35522860811062
C           -2.92809917297535        2.09350119347107        0.33744356951341
C           -3.49429487415971        0.68775356197745        0.40367418207586
C           -4.47537157267901        0.28860333776077       -0.50793165027052
C           -5.03194278359434       -0.97621081303738       -0.46224321983310
O           -6.00112408874600       -1.44023386416472       -1.30544810768111
C           -6.54581764244485       -0.55669934119625       -2.25278583661235
C           -4.59198135193531       -1.89467014579093        0.51679903071581
O           -5.19375889762999       -3.12026177991435        0.48850506504202
C           -4.83948978125180       -4.05014232914992        1.47928791004336
C           -3.61389381799594       -1.49727628283559        1.41076299082688
C           -3.07000059574723       -0.21983831621907        1.35250514938740
C           -2.32066627920755        2.29006944108142       -1.06352321811867
C           -1.49178363328292        1.11045256302627       -1.63182781033119
C           -0.14798410578226        0.83195882074727       -0.99278915203101
N            0.45968779002667       -0.28689012317660       -0.74967089949104
C            2.41858077983815       -0.27780857229694       -0.80255916759963
C            3.50403016979340       -0.66455580315301       -1.73667527284371
C            4.82359819627946       -0.47602086155378       -1.03096465718927
C            5.52158833941523        0.70632086721908       -1.14466183655626
C            6.79096876607981        0.82412692149314       -0.60271438045306
C            7.35745535683731       -0.22703187365359        0.09119475664469
O            8.61057023365550       -0.23523078721318        0.62691533634213
C            9.41307975331269        0.90327759638170        0.45931019140526
C            6.61124474256416       -1.41014084871057        0.27957261385670
O            7.25115264367636       -2.38933529214078        0.98102296863194
C            6.58853124564192       -3.60851694177630        1.18890380101828
C            5.34513623471313       -1.51148402233797       -0.25981221354550
C           -0.32889914528482       -1.50861162395796       -0.87718308857892
C           -4.06853488596781        3.11239913901033        0.58180578006574
C           -4.73968049995356        2.82541904373251        1.92268858959632
C           -3.57650098406355        4.55797004971472        0.55466764990947
H           -4.81945656808340        0.98573505215423       -1.25574342449209
H           -7.00007653866856        0.32197499040896       -1.78019728179250
H           -7.31712634057873       -1.11954280054489       -2.77700631105151
H           -5.79283509560088       -0.22729249056947       -2.97508607635070
H           -5.05606557206136       -3.67106146941279        2.48456652635439
H           -5.45051881301156       -4.93269740473405        1.29241511408065
H           -3.77985144613030       -4.32064567706822        1.41472785044186
H           -3.26986608853385       -2.17067798686560        2.17794660223688
H           -2.32575228125082        0.06794161418013        2.07679795823461
H           -3.15995893654712        2.45242262140839       -1.75135711097464
H           -1.72251256057117        3.20411119501671       -1.05177819898468
H           -2.12876993458430        0.22054813756758       -1.59710398520986
H           -1.25851563681134        1.38460096087546       -2.69777486573971
H           -0.90122926324108        1.96126814844391        0.97720597871426
H            0.45703062120252        1.74848987170481       -0.94270029842606
H            2.48832122007402       -0.84734046276077        0.15297208302518
H            2.53761280213415        0.76940301480365       -0.55436951254210
H            3.45856474707180       -0.02255289968349       -2.60722992410628
H            3.32139424356963       -1.70122080279515       -1.97938477025225
H            5.09530627620901        1.53756580808352       -1.68515511543674
H            7.34340107750520        1.73727879446786       -0.75187193501506
H            8.97090972353080        1.78717723686638        0.93253476995497
H            9.59887861022769        1.11719483545765       -0.59962979560949
H           10.35729852184581        0.67139592763029        0.95013146023111
H            7.29510543241348       -4.23191641039477        1.73790976519643
H            5.68056048111392       -3.47809649133403        1.78664694371405
H            6.33168245292615       -4.09802203551974        0.24270290678535
H            4.75751084594361       -2.40766199636087       -0.11989223088555
H           -0.37754249027203       -1.87140066817820       -1.89071169581720
H           -1.35428737021070       -1.28874968041808       -0.56951376577283
H            0.08897878870888       -2.30999338395555       -0.25114015628095
H           -4.81122181197097        2.99096761881455       -0.21574548236856
H           -4.00608691412240        2.91479181692916        2.71233632557052
H           -5.15253335766860        1.81990542562101        1.94328527590259
H           -5.54228687580839        3.53797887857872        2.10422850201258
H           -2.82543498316080        4.70143478372720        1.32317460048367
H           -3.15842144119421        4.82280044885530       -0.41316072500635
H           -4.40793967255761        5.23082584499747        0.76058763572139
H           -1.00955533887536        2.80618920864677        2.94641655033913
