72
 energy: 24.724370677058 xtb: 6.6.1 (8d0f1dd)
N           -2.24011554417619        2.27684816879185        2.60482483461432
C           -2.10126086456341        2.45935166856332        1.37285207187710
C           -3.17917637300343        2.14204466321626        0.36505619883556
C           -3.75393743655774        0.74019233396360        0.49750726295358
C           -4.73515904172878        0.34556042389161       -0.41795681531829
C           -5.30551783338281       -0.91037949465903       -0.36494302742806
O           -6.27535962090949       -1.36472864762553       -1.20685854531832
C           -6.77949654286933       -0.49948524855917       -2.19063608152445
C           -4.88295160528400       -1.82505542870538        0.62685400873477
O           -5.49606817525806       -3.03892490457515        0.61002370774719
C           -5.11302567191154       -3.98877314622190        1.57415215304023
C           -3.90610319810275       -1.43143808905655        1.52185679937463
C           -3.34643757023221       -0.16145962991052        1.45792816282034
C           -2.63634538531252        2.32621024481694       -1.07714493375911
C           -1.89956819246859        1.09707187792304       -1.61647784734507
C           -0.76414374979882        0.66195918153490       -0.75061337381723
N           -0.43075579549191       -0.49965877429515       -0.41435185570541
C            3.87763081001682       -0.20364978172318       -1.04708101373579
C            4.48979838474188       -0.78071081532686       -2.25768226808773
C            5.39927297998863       -0.43700025795191       -1.11147131791403
C            6.20555889176688        0.74059595140012       -1.23333356703712
C            7.40654511285179        0.82366621383770       -0.61192639696306
C            7.89898941525122       -0.24224216168861        0.13685599512489
O            9.10823857988962       -0.27822273531542        0.76099171097742
C            9.93312610800225        0.84482883024096        0.67186781134793
C            7.11702347234826       -1.42042823319960        0.28950714953173
O            7.69774539486617       -2.39626977073405        1.03982805886023
C            6.99906487356145       -3.60175128266736        1.23117027134198
C            5.91090324947522       -1.52495499980552       -0.31133361656301
C           -1.12636287676134       -1.68365757818697       -0.84117892361585
C           -4.33218671621532        3.17345622694709        0.59309921255935
C           -5.07562507236829        2.89661893388953        1.89497062135983
C           -3.83478301289793        4.61863521889553        0.58353385840986
H           -5.06578948217780        1.03946931337731       -1.17447003237772
H           -7.23944615528952        0.38991517183958       -1.74599074972600
H           -7.54425385392884       -1.07074471625260       -2.71560375631237
H           -6.00668691466261       -0.19313415842746       -2.90361657933902
H           -5.32909458428976       -3.63342898282881        2.58652438531072
H           -5.71170114071825       -4.87364031571336        1.36562773994520
H           -4.05099605984657       -4.24669894887420        1.49993353044000
H           -3.57413534740716       -2.10047701076546        2.29872503925592
H           -2.60562321130593        0.11370869987337        2.18865259013019
H           -3.46601150576573        2.55029115875816       -1.75846682263506
H           -1.96449392143492        3.18621453415065       -1.10051082285231
H           -2.60443777329400        0.27367321247814       -1.75342279873314
H           -1.45815400807416        1.33076576488305       -2.58924867387656
H           -1.25252642810415        3.00441726787669        0.92494081745422
H           -0.12380596763425        1.46580861985864       -0.39236859904611
H            3.27276673976076       -0.85738134169574       -0.41138984722011
H            3.49126248499886        0.81103913447915       -1.09535920699912
H            4.54102121223669       -0.14761485192282       -3.11794528572635
H            4.30766044777667       -1.82027823395077       -2.43362908486858
H            5.81169191862428        1.55409521023444       -1.81419542778985
H            7.98676910158309        1.71997296676902       -0.73776042515479
H            9.45833324691453        1.73572867623857        1.10293819857841
H           10.20443260966037        1.06245574855330       -0.36848579842299
H           10.81614915181422        0.57230055880073        1.25340881545607
H            7.67149713488401       -4.20224687081677        1.83757906785069
H            6.05470168579693       -3.46041894272310        1.77110981100784
H            6.79755606966785       -4.12421541078611        0.28848752945558
H            5.29012960286438       -2.39882012859413       -0.20621190378089
H           -0.88172890508891       -1.90696914107674       -1.88312832223649
H           -2.21086612150064       -1.62108883686098       -0.74754985135403
H           -0.75894541158984       -2.50213873854800       -0.22222859352793
H           -5.05025972416659        3.06398430075463       -0.22902486019148
H           -4.38248429755600        2.90242966312636        2.73165757159899
H           -5.55562216893421        1.92261971440012        1.86530986481190
H           -5.83440224951232        3.66434487554878        2.06478010436277
H           -3.15930319939976        4.80485940944483        1.41658285967531
H           -3.32055092507467        4.86977735619369       -0.34107645826267
H           -4.69234238460367        5.28292255154370        0.68022374689357
H           -1.46126373186991        2.58549064844490        3.17741000923574
