72
 energy: 27.362399737157 xtb: 6.6.1 (8d0f1dd)
N           -2.25139979752674        2.31256608815203        2.62293351140801
C           -2.08208572974850        2.44489154810262        1.38360183840262
C           -3.15810201150130        2.13606871139046        0.36793261073986
C           -3.73217936299309        0.73525035921789        0.49099609247844
C           -4.71307615866222        0.34098581010397       -0.42479776405516
C           -5.28208186960984       -0.91566250034514       -0.37274004261949
O           -6.25148226529345       -1.37097806493372       -1.21575102136095
C           -6.75940965582864       -0.50337844574587       -2.19543106749748
C           -4.85796087015992       -1.83060976357225        0.61747055080841
O           -5.47010176993958       -3.04590027484171        0.59867617082181
C           -5.09041045104306       -3.99360958635657        1.56568868275977
C           -3.88131629039445       -1.43766109056755        1.51305584787934
C           -3.32325859538439       -0.16721500973679        1.44946066321540
C           -2.61137205588361        2.31930121364127       -1.07012115005707
C           -1.86682080622587        1.09385242211867       -1.60551701088480
C           -0.70508333576081        0.67749923402275       -0.76828449183606
N           -0.34130755698293       -0.48037660119521       -0.45032153810540
C            3.78107508018541       -0.20767950080473       -1.04190146976296
C            4.41583111253570       -0.77344229531448       -2.22969002494523
C            5.38035449848405       -0.45489315370020       -1.13959938698837
C            6.15382806458068        0.73573705908146       -1.23903044402602
C            7.35988779427139        0.81915587919669       -0.62413921716712
C            7.85942971810239       -0.24314008731732        0.12001395816255
O            9.06690374657051       -0.27307119874144        0.74955946267426
C            9.89074442274258        0.85085737288997        0.65276509350130
C            7.07925712804992       -1.41957682408829        0.27832924340458
O            7.66121395288655       -2.39140721718157        1.03212725584504
C            6.96569231674239       -3.60016163114138        1.22578568202745
C            5.86837196253528       -1.52527743693790       -0.31593528774778
C           -1.05012465630651       -1.66749652474163       -0.84852318981538
C           -4.31333602241837        3.16754997362670        0.58960541023990
C           -5.05286468981951        2.89220059629597        1.89392691094769
C           -3.81393170980074        4.61220591201170        0.58057665028575
H           -5.04457748794947        1.03521241677380       -1.18061987418954
H           -7.21864533218818        0.38530150455077       -1.74817837953708
H           -7.52497537466556       -1.07305247147822       -2.72104490231421
H           -5.98842604636858       -0.19468612765429       -2.90934726572152
H           -5.30629806586676       -3.63610490075450        2.57771050356241
H           -5.69016494942573       -4.87875148610058        1.36030951187506
H           -4.02860289814865       -4.25304902402496        1.49272306126761
H           -3.54835428448680       -2.10767847709203        2.28855580066935
H           -2.58196812150297        0.10943420540918        2.17881722792298
H           -3.44002596041773        2.53632240176619       -1.75652592873964
H           -1.94586833235660        3.18349249696013       -1.08808699991651
H           -2.56781495066784        0.26384198517219       -1.72708090157229
H           -1.43577080300331        1.32334287875458       -2.58566976400177
H           -1.20484819856301        2.92531112375645        0.92525859116624
H           -0.06575278124367        1.49234799234563       -0.43383901414309
H            3.19567180557573       -0.86573823215937       -0.39080557021606
H            3.39887798489041        0.80820694813136       -1.07443429020171
H            4.45246751711355       -0.13222630565070       -3.08248741383214
H            4.22234034328740       -1.80972290602467       -2.40334419949982
H            5.75411701630299        1.55017309617582       -1.81590953405172
H            7.93941113713589        1.71369359867088       -0.75519981015279
H            9.41800578824573        1.74053003665040        1.08811055781149
H           10.15456420573439        1.06752526040229       -0.38954680943003
H           10.77723132692224        0.57826272906261        1.22845894892622
H            7.64066200878637       -4.20283512724782        1.82792574776638
H            6.02391527692239       -3.46089542154894        1.77064441663422
H            6.75946480791199       -4.12168911567896        0.28344150174276
H            5.24835772371921       -2.40030307890440       -0.20332778196969
H           -0.82973893360567       -1.90611124532529       -1.89269584272172
H           -2.13196586263359       -1.59469889470194       -0.73199737863316
H           -0.67711263701644       -2.48187068612717       -0.22750262359820
H           -5.03117948991709        3.05531564457938       -0.23730370663273
H           -4.35466575421665        2.90789574834302        2.72766839994622
H           -5.52302384964775        1.91283453439886        1.87098737003455
H           -5.82510640232263        3.65239535374108        2.04986962400353
H           -3.13200069606830        4.79417484019180        1.40911737446732
H           -3.30764030297613        4.86492371762103       -0.34808362662834
H           -4.66936673125244        5.27753411957010        0.68799422619206
H           -1.45733078842964        2.63131805454682        3.17642430312296
