72
 energy: 40.502513145570 xtb: 6.6.1 (8d0f1dd)
N           -2.18146400090130        2.49626552251826        2.62386099431273
C           -2.03142113442038        2.39990991939972        1.38057283322766
C           -3.09007288541895        2.12038445552435        0.36735357052194
C           -3.65270820112947        0.71853683828701        0.46520180589232
C           -4.62904580461849        0.32159723215942       -0.45248778386534
C           -5.19293944237165       -0.93849644735208       -0.40389180966028
O           -6.16163324187427       -1.39919870737552       -1.25097647103793
C           -6.68115228860980       -0.52112224233491       -2.21576483693354
C           -4.76284842629525       -1.85405321130731        0.58166428224388
O           -5.37185812206546       -3.07686358922113        0.55736818638908
C           -4.99883973691385       -4.01363019581593        1.53492536865290
C           -3.78473388014700       -1.45937563599182        1.47692909791137
C           -3.23272419979535       -0.18599942062667        1.41643951015350
C           -2.51561983976228        2.29335321279891       -1.04915668685406
C           -1.73806790277597        1.08860662969773       -1.58749394992879
C           -0.48064301457782        0.74469424992804       -0.85952519774437
N           -0.03954383186959       -0.40110806416788       -0.59028105029255
C            3.16877153471073       -0.26127967259741       -1.06033964575122
C            4.09951182615771       -0.72466079322305       -2.04500334182408
C            5.26971759274181       -0.49466305192681       -1.16065158307712
C            5.92899792856370        0.71196132069853       -1.21568767769157
C            7.15840835046253        0.81950957089528       -0.61123097149770
C            7.67880928777075       -0.23663608476143        0.11191668652742
O            8.90786481839750       -0.26292623791831        0.69615538474217
C            9.71844748001843        0.87106205888743        0.58110713772480
C            6.91596654620588       -1.41377092656614        0.28352084833492
O            7.51760502428622       -2.39281779702223        1.00767882389818
C            6.82808517396614       -3.60193359954260        1.21166559126049
C            5.68615149094370       -1.51741607342148       -0.31061102405146
C           -0.78810979532662       -1.60380324036384       -0.87879585496084
C           -4.23473472632859        3.14614878223413        0.58424474955404
C           -4.94452003660232        2.86701356354185        1.90320311856100
C           -3.73114811345244        4.58921665207358        0.56928486215904
H           -4.96182293589036        1.01711157463649       -1.20703031920903
H           -7.13742314343621        0.36481871489678       -1.75842505928138
H           -7.44905866689099       -1.08355527742356       -2.74572007343528
H           -5.91490743049022       -0.20372735781647       -2.93008373231838
H           -5.21418331249576       -3.64653001358871        2.54466337709145
H           -5.60091944424842       -4.90044415267955        1.34079788012478
H           -3.93689436391244       -4.27337891949060        1.46410442937505
H           -3.44717933030372       -2.13048631904386        2.24890511980993
H           -2.48804979183297        0.09797054874442        2.13961396189272
H           -3.34050147669285        2.48236317734590       -1.75116908787254
H           -1.87159448356536        3.17415040209448       -1.04581237671122
H           -2.41460741323409        0.22833159703445       -1.63841222085951
H           -1.41799544794207        1.34519090882350       -2.62305761662865
H           -1.07256586750521        2.60349729986595        0.91642276212786
H            0.15160704767115        1.59788236092042       -0.60283856471881
H            2.85957998392915       -0.89906878649456       -0.24452107576976
H            2.99395757504093        0.78209576920750       -0.98456151579318
H            4.09998213125710       -0.08682840654625       -2.91057092054134
H            3.90417305740670       -1.75812472262498       -2.26423570297903
H            5.51750064892712        1.53515362284621       -1.77793040086415
H            7.72470703804279        1.71941172542265       -0.75929432873155
H            9.25337206597828        1.75612219961550        1.03291550162339
H            9.95465021947709        1.09067629801763       -0.46743853478843
H           10.62842638639203        0.61774200788360        1.12554415207654
H            7.51221100959207       -4.21543434838101        1.79631961313544
H            5.89839192101996       -3.46175247311122        1.77514541174744
H            6.60275326997564       -4.11225278825211        0.26782770029167
H            5.07614231853747       -2.40326535160557       -0.18913089375076
H           -0.65213553570773       -1.90047119429726       -1.92269037797526
H           -1.85330676331437       -1.49051074953637       -0.68027653483573
H           -0.39144950532154       -2.40233296104693       -0.24988285027809
H           -4.95632602551697        3.02954686361337       -0.23510162712105
H           -4.22788558614603        2.91408469645319        2.71522260346467
H           -5.38967376719898        1.87520905103818        1.89994493599425
H           -5.72966370805959        3.60623181324816        2.06815189221869
H           -3.02295587671825        4.74805145961458        1.37755250114545
H           -3.25733302738243        4.84473308670183       -0.37563781578187
H           -4.57450697127527        5.26278919021850        0.71949732951351
H           -1.31765099692445        2.70581742912818        3.13067915285235
