72
 energy: 6.342672796925 xtb: 6.6.1 (8d0f1dd)
N           -1.74993082584222        2.86192107640313        2.37172041470370
C           -1.72984689108014        2.21424817082629        1.29211209118111
C           -2.85221558685722        2.08266964074033        0.30593318109908
C           -3.42405521703287        0.67585928279590        0.37334288307960
C           -4.40929874500260        0.27423569313624       -0.53258146605953
C           -4.96257888257257       -0.99229314600904       -0.48696862278982
O           -5.93258666255691       -1.45926502925399       -1.32828747990199
C           -6.48833649549829       -0.57504129729241       -2.26823535425400
C           -4.51890022097239       -1.91129058363357        0.48896472909211
O           -5.11777582634383       -3.13911230494682        0.45812008650082
C           -4.77252257373667       -4.06723342749681        1.45291473683793
C           -3.54141384271658       -1.51217600376959        1.38215159857876
C           -3.00076766524138       -0.23312085249333        1.32304830449219
C           -2.25599754933916        2.29329126437992       -1.10235241844480
C           -1.38214281472808        1.13157716903823       -1.64961579114031
C           -0.03981953189153        0.93456828763048       -0.98398699647891
N            0.70133783669938       -0.27396958313988       -0.84074933878181
C            2.16517376687782       -0.22254268043907       -0.56295104704326
C            3.25893384907710       -0.62558097516957       -1.56420045175466
C            4.63369031055804       -0.46134318266729       -0.95783570752322
C            5.34873481945288        0.71013141395546       -1.10766098308502
C            6.63602078605799        0.82793989964590       -0.60151456895409
C            7.22161812011785       -0.22186949491571        0.07988268476188
O            8.48323230529269       -0.22559878652851        0.59145411461224
C            9.28320658157081        0.91448621748897        0.40694943241852
C            6.48160316966518       -1.40788799201156        0.27925474677140
O            7.13668888882109       -2.38687287839712        0.96630567907189
C            6.48487560714135       -3.61087156971733        1.17764879224388
C            5.19859198948215       -1.50511664598062       -0.22675214188378
C           -0.14557802675033       -1.46103200073784       -0.80836707136780
C           -3.99208585577127        3.09839614408186        0.58059209448145
C           -4.64718789262742        2.80686207405551        1.92966570729184
C           -3.50807012811989        4.54607632856903        0.55157018546194
H           -4.75813133262121        0.97092392661756       -1.27844364464401
H           -6.94215024956149        0.30000019907249       -1.78864222301250
H           -7.26135297172957       -1.14042328668171       -2.78716762319227
H           -5.74242120565462       -0.24028055928616       -2.99585719200127
H           -4.99003034458793       -3.68450894926310        2.45667388435358
H           -5.38818129917564       -4.94662582120042        1.26598508821482
H           -3.71434119433372       -4.34519983633405        1.39267602932190
H           -3.19456764079625       -2.18657107556893        2.14771483232007
H           -2.25748647906858        0.05470342624332        2.04836946836816
H           -3.09385588297505        2.43426833593481       -1.79426206764227
H           -1.68233566692319        3.22159970648453       -1.10191481269349
H           -1.99324109298024        0.22417936806828       -1.60390623152507
H           -1.16682476544600        1.38963619604738       -2.72023504784070
H           -0.83537075994772        1.72475772999846        0.94936653925351
H            0.60246483145771        1.80554093986792       -1.11697082810467
H            2.35262320017489       -0.79567921506519        0.38067840269332
H            2.42223241002973        0.81478060376048       -0.30168058338308
H            3.18397627541273        0.00488445691599       -2.44683073548347
H            3.07098852982951       -1.66276956677637       -1.81507813138902
H            4.91628266909408        1.54423680858781       -1.63879573890039
H            7.18311423234298        1.74439726838879       -0.75775466661978
H            8.84998470512162        1.79723703490998        0.88919885781969
H            9.44926290780622        1.12691533379470       -0.65489285557059
H           10.23851665200930        0.68723097451587        0.87730455336415
H            7.20158951890994       -4.23729370383900        1.71028161202899
H            5.58710216750860       -3.48601720045991        1.79130837625023
H            6.21432480537955       -4.09269772854921        0.23178569510505
H            4.62143554541439       -2.40520574599659       -0.07734186553093
H           -0.31028240324389       -1.81981774452273       -1.80938132027750
H           -1.15074865101039       -1.21987831073607       -0.42647483663920
H            0.28791878505511       -2.25436853527386       -0.19321328595320
H           -4.74672285797204        2.97754991643197       -0.20507070999887
H           -3.90753070402017        2.91080466969572        2.71153037616284
H           -5.04835408083668        1.79656588555805        1.95873625690224
H           -5.45780087864453        3.50851138666034        2.11940620519335
H           -2.73931377861377        4.68336398206226        1.30286269455209
H           -3.11339153263287        4.81667718083805       -0.42409785949167
H           -4.33638795687879        5.21608246829161        0.77931838859088
H           -0.85492069898445        2.80196045988251        2.85996957118370
