72
 energy: 58.419089181442 xtb: 6.6.1 (8d0f1dd)
N           -1.46744589359328        1.97147476355424        1.99842785538263
C           -2.35485781019907        1.54638896675072        1.22896625178591
C           -3.12280505108725        2.22947539396287        0.08758392339930
C           -3.77703641646796        0.88700334556678       -0.10334273141589
C           -4.81531579815512        0.30580297798597       -0.76498514363784
C           -5.12361904266139       -1.01893853959321       -0.48157450442693
O           -6.03202232464055       -1.73365488676357       -1.18623521230068
C           -6.69824155837597       -1.07526388464294       -2.23947072754982
C           -4.48462915379869       -1.67146548508145        0.60964922011049
O           -4.98618157857221       -2.93501373206698        0.82208974956098
C           -4.44292750415498       -3.78388460099787        1.78656455580325
C           -3.45355041544848       -1.03458892688109        1.30867272886819
C           -3.05433708370133        0.25323291367761        0.90358170859357
C           -2.28747321164521        2.66984862437830       -1.12841133956279
C           -1.51384942059173        1.53113363315604       -1.79404072283959
C           -0.26725318647552        1.10302509104987       -1.00937654465185
N           -0.43434298868820       -0.14235829781748       -0.26088167748675
C            2.55206421770172       -0.14530700694111        0.02365304769281
C            3.30074355540504       -0.53547894251375       -1.19914477133406
C            4.62151560512883       -0.38902147892710       -0.54353795404405
C            5.29106188940529        0.81247615651701       -0.64985091853643
C            6.62488437299942        0.86572968791890       -0.32036013302641
C            7.26349866351243       -0.25670091047625        0.17265591617915
O            8.58052774260402       -0.32330579370885        0.50649514847395
C            9.37464324164554        0.80802067098023        0.28115168341593
C            6.53440130782876       -1.44413554654928        0.40237419258379
O            7.23746863066281       -2.48042221504291        0.92613733320238
C            6.57223503182933       -3.69838383283808        1.13928450583434
C            5.20682875778571       -1.49045567093916        0.07507566986894
C           -0.46336992078756       -1.31792790249998       -1.14427875002191
C           -4.05551466210694        3.33044057764653        0.56963387285260
C           -4.90864417115661        2.86689343649227        1.74329526645581
C           -3.29408929291902        4.58159402573334        0.94551845338667
H           -5.34903670430809        0.84888466965340       -1.51944054498982
H           -7.26414543560898       -0.21299111779594       -1.87585495380966
H           -7.39480697907520       -1.80330806195589       -2.64067774198951
H           -6.01652754395984       -0.75699904048987       -3.03837967580859
H           -4.63563641003101       -3.34406972695777        2.76204438876453
H           -4.95588000483305       -4.74383760550694        1.72157049744893
H           -3.37512751047690       -3.96036104490279        1.63959848618769
H           -2.95947268744259       -1.54879828004574        2.11456004280440
H           -1.43978373917621       -0.09040745985190        0.21230182065059
H           -2.98810025591344        3.06377556956930       -1.87626801148339
H           -1.58259078123929        3.44153143952426       -0.83377910324565
H           -2.19018926942836        0.67443883601046       -1.90394194221276
H           -1.24609594508958        1.81270461163786       -2.81735647686240
H           -0.19817858786752        1.85757109786862       -0.20290629856657
H            0.59498746859526        1.21762263754549       -1.73716601325047
H            2.61816691894311       -0.85581159863046        0.83452386177804
H            2.68646955024336        0.88560498109165        0.31473290137572
H            3.18209014300018        0.15423287939367       -2.03090077925470
H            3.11416635404958       -1.55013584881119       -1.53843427670856
H            4.79644160537572        1.67247341802547       -1.08110206014514
H            7.15458908052691        1.78270922200013       -0.49804196423101
H            9.03364770980851        1.66671566280885        0.86980135509729
H            9.40736099778685        1.08235075630158       -0.77973694491534
H           10.37520971194101        0.52072291502413        0.60051362626910
H            7.33575202793043       -4.36653815197973        1.53615468760268
H            5.75933412079087       -3.60142748894367        1.86609066222870
H            6.18295886682206       -4.12288728613972        0.20807122350656
H            4.62569409855053       -2.38777086397069        0.21255565750444
H            0.22383340895045       -1.40750032056985       -1.99872094059545
H           -1.44236935456134       -1.19566675671414       -1.55818753436591
H           -0.31281463310938       -2.22605415798841       -0.52613769784547
H           -4.69452598617721        3.52472739376346       -0.28720306464986
H           -4.30060313460246        2.65791947386415        2.61740939970624
H           -5.46698835078919        1.96684392013738        1.50728400741973
H           -5.60855094955748        3.65576229941155        1.99435251555565
H           -2.54702218471337        4.34814850869766        1.70254926688986
H           -2.81053540503408        5.02223606427705        0.08142099279657
H           -4.00060048346254        5.29631141449288        1.35342228023743
H           -1.11067872328006        1.36853937428607        2.74486657553275
