72
 energy: 35.903513687212 xtb: 6.6.1 (8d0f1dd)
N           -1.43490717821880        1.91065554138663        1.97400489154008
C           -2.38856769865372        1.54120418837824        1.23727279422126
C           -3.14410765417393        2.25623209313845        0.10452158930104
C           -3.82350819930598        0.90818665571320       -0.13107146532317
C           -4.82990245834435        0.29662720760609       -0.82821574726024
C           -5.09367947380526       -1.03982605224458       -0.52188716156679
O           -6.05636614607959       -1.77551827866955       -1.14387842876602
C           -6.75505321269351       -1.17782435128471       -2.21612819308366
C           -4.44335218688833       -1.66462156959501        0.58068833876599
O           -4.93306222544015       -2.91998092182822        0.82939744324036
C           -4.39835074676002       -3.71210783125204        1.85691897626489
C           -3.49126996916797       -0.99358860776463        1.34419727378184
C           -3.09985354113394        0.27807752309051        0.90195189740349
C           -2.27402259395443        2.69540562722911       -1.07104807142475
C           -1.54213224696072        1.56300802982122       -1.77504972490369
C           -0.26345363706977        1.06290241360809       -1.03945066888966
N           -0.52139384375269       -0.15775319927130       -0.30178900920205
C            2.92335781680895       -0.13675099885605        0.07865025191287
C            3.32113868692934       -0.55062257562567       -1.26369216025110
C            4.53869454351710       -0.35513883955629       -0.42430755453523
C            5.31625137441702        0.84034464279722       -0.56810014313889
C            6.64725801283226        0.86787029491687       -0.26365584491936
C            7.30952737325030       -0.26528384935783        0.19557685844690
O            8.63808565811478       -0.35288545962923        0.47666026633393
C            9.44071470540998        0.77481429503718        0.26679938074427
C            6.56674373221113       -1.45481468874303        0.41173769787952
O            7.28835756084516       -2.49921464560696        0.89829677471631
C            6.62995777026512       -3.71592137805436        1.13287346963190
C            5.24403622368061       -1.49955816309285        0.10488276532368
C           -0.63905883559666       -1.30072478125485       -1.18100031047238
C           -4.07485359540625        3.37857047959853        0.57506802764627
C           -4.99091818383016        2.89399215168770        1.69289611431314
C           -3.26982202142462        4.57794907675730        1.03429504195596
H           -5.40118683362422        0.81197507814535       -1.58823380312366
H           -7.35580396193378       -0.32726926070214       -1.88215169599563
H           -7.42832564201528       -1.94155903674765       -2.58797090930194
H           -6.09381224743638       -0.86740094203267       -3.03462669248462
H           -4.59623221668428       -3.24435807282941        2.81972838844217
H           -4.88562299319128       -4.68700880742896        1.84277518662898
H           -3.32738301508958       -3.86495837709488        1.71048688301230
H           -3.03406635482985       -1.46946521946466        2.19669698950532
H           -1.47206769382727       -0.08860031137896        0.18908794982198
H           -2.91717158897636        3.15935496579851       -1.82991144222214
H           -1.55846159990293        3.44277602197274       -0.73933880209788
H           -2.21749292849626        0.72078513416842       -1.91922161285588
H           -1.23627705775304        1.90804081405429       -2.76350623804268
H           -0.02207717802417        1.85359666399383       -0.31917112721370
H            0.54004706776784        1.00502498330653       -1.80810279108953
H            2.56053614929587       -0.86013555850970        0.78672046264946
H            2.68703252199647        0.89437707615946        0.27837783554973
H            3.21350983612235        0.16283365191513       -2.06119032044391
H            3.14594341668578       -1.57087314971305       -1.55719626954276
H            4.82883212452323        1.71953014053168       -0.95543602469950
H            7.18977046005528        1.78250692782696       -0.42752817654892
H            9.12222054421602        1.62548762809440        0.88196078057226
H            9.46231844341743        1.07600073306224       -0.78753427426776
H           10.44283152142549        0.46262526620755        0.56012224519178
H            7.40619244933176       -4.38235530759709        1.50826031728078
H            5.83528052750515       -3.62078038335372        1.88138230031249
H            6.22040643953497       -4.14154446717181        0.21114847013230
H            4.66504193027378       -2.39173240742266        0.27095502728972
H            0.12077220369759       -1.30402258491204       -1.96619592804888
H           -1.61050201358450       -1.28299861019320       -1.66841561696701
H           -0.47583321766103       -2.19466927060445       -0.58208222171381
H           -4.67702440711658        3.64002219978588       -0.29236143381940
H           -4.42823044786565        2.60714915285725        2.57982954430173
H           -5.57844200430401        2.03132840137978        1.38491064839661
H           -5.65769709904143        3.70901375444284        1.96161421343398
H           -2.54055984291052        4.26649710583475        1.78932029216400
H           -2.76086598107819        5.05498972724706        0.20215243251563
H           -3.95337588608610        5.29830198462980        1.47469616695984
H           -1.25924214658938        1.24321218804011        2.72930218545423
