72
 energy: 51.326743181711 xtb: 6.6.1 (8d0f1dd)
N           -1.79656931467770        2.07256191151425        2.29864524705419
C           -1.77778961498682        1.97227110637834        1.05303557473169
C           -2.92807559474299        2.14420050547493        0.12656683052787
C           -3.53436301655636        0.77469278900818        0.09018183756741
C           -4.58976586267484        0.29311309149638       -0.65861792006936
C           -5.02467455317282       -1.01422278344282       -0.49669766488146
O           -5.94008991291680       -1.62517384386633       -1.29695507577351
C           -6.55550418494968       -0.84265345275360       -2.28048415020998
C           -4.50453509237558       -1.81726140942767        0.53869206375171
O           -5.03136891839024       -3.07589514581011        0.62736595165151
C           -4.55507932634293       -3.95372799497352        1.60275626241991
C           -3.44552642678846       -1.32044475065754        1.26755511416504
C           -2.86735779056813       -0.13242399877938        0.85369720275765
C           -2.24517388676211        2.49180986142308       -1.20385863972167
C           -1.36350145777542        1.34774599782736       -1.78819678682147
C           -0.06758943177195        1.16705122328114       -1.00660326933627
N            0.43013109908527       -0.09486805460899       -0.44753832350386
C            2.16704502589044       -0.14346572469194       -0.09396622945787
C            3.10916901240583       -0.54265973366758       -1.22564052614961
C            4.49614990402489       -0.40161547156412       -0.65626605650693
C            5.18880725122660        0.77116054932348       -0.84996162577757
C            6.51154290998787        0.85637073035872       -0.46239541486774
C            7.13370370098302       -0.23138247116403        0.11949152479774
O            8.43150252841244       -0.26598420813450        0.52229192733392
C            9.22387073878981        0.86974058670045        0.30093444716131
C            6.40974898182489       -1.42019792788615        0.34378314545061
O            7.09903591135751       -2.43223304262320        0.93401452675559
C            6.44473026943625       -3.65554135113137        1.14608398172443
C            5.09502071600203       -1.49236608359936       -0.05104384705979
C           -0.18330238437791       -1.33501236037778       -0.93995664644124
C           -3.97702670683402        3.19592290869868        0.55939602037605
C           -4.70861122167217        2.80988919620994        1.84395801717634
C           -3.34784933431205        4.57006817778767        0.74006322956801
H           -5.00865198201082        0.91132422461062       -1.43385942566159
H           -7.05810878420101        0.02474222114311       -1.84179536542326
H           -7.29723228044782       -1.49163882446366       -2.73756653931311
H           -5.84307498058496       -0.51056908961126       -3.04350022939838
H           -4.75493743765379       -3.53604264255926        2.58946259334134
H           -5.12079799269565       -4.87665505564589        1.47817608909157
H           -3.48848192417142       -4.18089168504587        1.49714950775256
H           -3.00592180186750       -1.88262328419691        2.08259056028910
H           -1.84445684438718        0.03536437077499        1.14679257426647
H           -3.03043716403028        2.72946491032298       -1.91257447100316
H           -1.60358287477651        3.35431386645783       -1.03531382037855
H           -1.95885116602436        0.44086561945827       -1.79391535927362
H           -1.17260744559378        1.57975299377045       -2.83955112698525
H           -0.74666955759153        1.80431909512335        0.28560509583173
H            0.74521498518860        1.77024018025364       -1.44641719336337
H            2.25243725990369       -0.86230215294632        0.70522816277046
H            2.40186600411445        0.85503139321795        0.23998866267940
H            2.98282885032622        0.10569377341827       -2.09941621760646
H            2.90674721429537       -1.57076456882933       -1.54871324637126
H            4.70881994757914        1.61731064650854       -1.32143170341934
H            7.04221606389652        1.77387004971803       -0.64481861788691
H            8.84124291084121        1.73905520850488        0.84492233953275
H            9.30397747351288        1.11307710657267       -0.76537801698498
H           10.21176691112864        0.61510416466773        0.68195085535347
H            7.19326883562615       -4.30650599534080        1.59721041402495
H            5.59847199682265       -3.54914927950164        1.83177828096776
H            6.10224145139975       -4.10478881921248        0.20750425409502
H            4.51550528775458       -2.38870729319827        0.09908656194404
H           -0.02428564796909       -1.57529116682594       -2.00489666207328
H           -1.26587896074326       -1.22484783720849       -0.78466269942378
H            0.14277889848543       -2.18428361566385       -0.30639309858185
H           -4.70256449616747        3.23427090365657       -0.25921489870428
H           -4.01515536926037        2.76906541756388        2.67111351776524
H           -5.19042382670218        1.83933477903260        1.75572643218247
H           -5.46748977242430        3.55659939557492        2.06604417799742
H           -2.56013912692423        4.51827702681092        1.48875178090210
H           -2.92200771462217        4.93712859036087       -0.18859986480124
H           -4.11113896246163        5.26947478603099        1.07476371771185
H           -0.89266280426441        2.06735562240235        2.77945186301152
