72
 energy: 10.207888748918 xtb: 6.6.1 (8d0f1dd)
N           -1.71261535988538        2.40444654111219        2.32888615720401
C           -1.69308204500198        2.03606299392604        1.12442946572768
C           -2.85451047280808        2.10830670664356        0.18542884390375
C           -3.44655170333275        0.72697843641995        0.19867560336954
C           -4.46803435257286        0.27648622629813       -0.62331054519779
C           -4.95005061725876       -1.01559914214630       -0.51006693095792
O           -5.88734988162565       -1.56797210521413       -1.32726257377672
C           -6.48696199841460       -0.74235316882765       -2.28767457037718
C           -4.45964380622832       -1.87019377571970        0.49940733831314
O           -5.01627943937790       -3.11698915185248        0.53391486228143
C           -4.60105193644302       -4.01777453246240        1.51980072853298
C           -3.44212207778889       -1.41088521031263        1.30874406177998
C           -2.88338111455952       -0.16406140312651        1.06553541501213
C           -2.21853828978872        2.40533111395795       -1.18987731631981
C           -1.30477699873338        1.26677242110656       -1.73472438098851
C           -0.00209294815056        1.12682920656480       -0.99047034731141
N            0.56764978615934       -0.12878335051703       -0.46644287688450
C            2.05283891851824       -0.15700863353468       -0.15079620610272
C            3.03400354567221       -0.55531333449382       -1.26156507686296
C            4.43928429575916       -0.41864435342252       -0.74112127656380
C            5.14029020506374        0.75222557655023       -0.93519902058249
C            6.45768467643224        0.84988640851972       -0.52335647469584
C            7.07522921955207       -0.22182014706103        0.09283466634207
O            8.36489409016137       -0.24243223729740        0.52473052946549
C            9.15726835167195        0.89523755067445        0.30880562185602
C            6.35042305986683       -1.41158912188115        0.31616940123918
O            7.03653848910531       -2.41112348329925        0.93367181477524
C            6.38984468832222       -3.63806631283555        1.14898980198787
C            5.04072855733688       -1.49363984294115       -0.10208625197454
C           -0.13102037521342       -1.34329953186314       -0.79761118064368
C           -3.93579122046160        3.14421834510368        0.56803780326001
C           -4.62023735975843        2.79431335713676        1.88742253128089
C           -3.36983935590361        4.55531347638050        0.65691357021648
H           -4.85550680511965        0.92741105836475       -1.38920174440865
H           -6.96812838263770        0.12504922424209       -1.82515880248408
H           -7.24462231534516       -1.36001599176048       -2.76374112895564
H           -5.76730502737229       -0.40625511397576       -3.04177060732722
H           -4.80956337673217       -3.61340883906937        2.51252765476792
H           -5.19313991904393       -4.91844685912913        1.36438422590747
H           -3.53919591301809       -4.27416562042714        1.43716973715082
H           -3.03316803899126       -2.02857157033958        2.09501614405163
H           -1.93134842588612        0.06220480611028        1.53737894531257
H           -3.02675639984665        2.57772942872618       -1.89917826320031
H           -1.61903199531837        3.30886456792666       -1.10589803181568
H           -1.88257090927695        0.34734956373555       -1.72412592731397
H           -1.10395396061005        1.48880677091775       -2.78922075331507
H           -0.78347717101186        1.77356578815990        0.46890160003326
H            0.73960430206659        1.87919249555978       -1.23841849494786
H            2.23561303188196       -0.80765900780863        0.70550798655796
H            2.31594510239557        0.84458686657483        0.16293401777839
H            2.88833082633900        0.08667523489690       -2.13314416313780
H            2.81650086719744       -1.58491607902001       -1.54758658285017
H            4.67064525835309        1.59348537088767       -1.42417370531739
H            6.99113387514284        1.76693302895863       -0.70713039546504
H            8.75867424442217        1.76963904919530        0.83315405345672
H            9.25955326268227        1.12587789500142       -0.75795612727099
H           10.13667804849996        0.64921759071391        0.71604247390649
H            7.13430902957493       -4.27758683293480        1.62184571953152
H            5.52981924067077       -3.53113153269872        1.81779055526199
H            6.06725659569054       -4.09956299470059        0.20932602075373
H            4.46690841939798       -2.39306180722800        0.05427643491709
H           -0.11090132112661       -1.60198406582726       -1.86552778050084
H           -1.17844966081712       -1.24073856024685       -0.49041264420868
H            0.31347479190399       -2.15231375368111       -0.20891114529355
H           -4.68389845894838        3.11309086683660       -0.23013309228903
H           -3.90301803497451        2.82523710511123        2.69541363513039
H           -5.05816829566139        1.80070282593366        1.85252956147182
H           -5.40765941424669        3.51464277717940        2.09286275064271
H           -2.57583899005947        4.59070728891187        1.39699288451060
H           -2.97332887343419        4.88751594474788       -0.29758723641373
H           -4.16120076843411        5.23701664731033        0.95888552554857
H           -0.78375784041465        2.37909465163895        2.77408854745187
