72
 energy: 24.971565294009 xtb: 6.6.1 (8d0f1dd)
N           -1.40951898653481        1.84671140851964        1.94788508348945
C           -2.41679943293907        1.51805718900227        1.26344742319621
C           -3.15259130762371        2.24151020932501        0.12909679308083
C           -3.85874012475275        0.91382462007413       -0.11832356772071
C           -4.82251584720271        0.28612989669479       -0.87224893783771
C           -5.09624487362718       -1.04026331537978       -0.52723043127150
O           -6.03176061049725       -1.81831456389826       -1.13931665261013
C           -6.80743901819653       -1.28579275243128       -2.19656479500981
C           -4.44690774360053       -1.65590224617939        0.58166971655500
O           -4.86138234906682       -2.93750715933123        0.79661138102351
C           -4.35442597690613       -3.64406650376263        1.90577544043146
C           -3.53773112671976       -0.97504755156375        1.38041170920225
C           -3.23483242699385        0.32307495147447        0.99195784960077
C           -2.27942384586175        2.69884984575943       -1.03660940701074
C           -1.54290480696193        1.56892719219519       -1.75181155290819
C           -0.25598650254456        1.05100594866251       -1.03273202054497
N           -0.43685758352056       -0.17399421104357       -0.28283424389357
C            3.08457996241479       -0.13212741681266        0.11847377017553
C            3.35381446991915       -0.55387028833362       -1.27734632825994
C            4.53362520810616       -0.32954079931151       -0.35511089265784
C            5.36155402558078        0.84456779770647       -0.57064621745759
C            6.69345523994511        0.86936728577711       -0.26603218569936
C            7.34520023174175       -0.26993471713458        0.20397662307728
O            8.67501283048843       -0.37524091150476        0.46772301819947
C            9.49231696762887        0.74270650832365        0.25595929336430
C            6.59134694524784       -1.45952440411647        0.41694064333477
O            7.32759506393964       -2.50620517646836        0.89359041896937
C            6.68425477573106       -3.73025589095742        1.12556746403297
C            5.26465676947214       -1.49892908365535        0.12072037039873
C           -0.62254301913520       -1.31036585716265       -1.18001340624414
C           -4.08051223984882        3.38819748877948        0.59047787978232
C           -5.06925880082660        2.92301075659810        1.65193340783130
C           -3.25244070893864        4.55847799058383        1.11814468688842
H           -5.35509742460423        0.77127968955650       -1.67768717523039
H           -7.43647384926658       -0.44706869942666       -1.88231820298378
H           -7.45987870532848       -2.09354256179014       -2.52297201416936
H           -6.17935884755059       -0.98719708086063       -3.04092053386452
H           -4.56227184345849       -3.15293067928942        2.86093909279072
H           -4.82500491001059       -4.62115407496473        1.90513692438007
H           -3.27962274012511       -3.76861957774975        1.77913887967554
H           -3.08827364225855       -1.43534310862250        2.24484650660570
H           -1.33343794827304       -0.08460081255737        0.23398611280503
H           -2.94584662147652        3.19051216048192       -1.75942138420598
H           -1.55276678450466        3.42826791302220       -0.67677794412814
H           -2.23081215604976        0.73530892929876       -1.90907035962044
H           -1.25440160033473        1.94207134942380       -2.73265892758783
H            0.09727961853541        1.82765688840559       -0.33738317450420
H            0.48152588520574        0.87219016301960       -1.80997137870361
H            2.59882387440088       -0.85235477584203        0.78335420646059
H            2.68235142428483        0.86995636854939        0.27552311910692
H            3.22340642868867        0.16692931358964       -2.05743516992761
H            3.15899086270134       -1.57090137732296       -1.54944391953630
H            4.86546971426749        1.72792098591430       -0.93588387654884
H            7.24417592566116        1.78421744913670       -0.41399723111610
H            9.20372281769350        1.58240836683618        0.89826517841033
H            9.48044987589168        1.06978621877536       -0.79010090557301
H           10.49580090875901        0.41240847864452        0.52045005346664
H            7.47245668078409       -4.39807696612590        1.47307446840958
H            5.91363831699128       -3.64195908207175        1.89926177554205
H            6.23743901852993       -4.14306338331807        0.21318828490421
H            4.68099683824403       -2.38978786802236        0.26757790324872
H            0.16688561681129       -1.32166845181959       -1.94780396759450
H           -1.60861008018518       -1.25685707068005       -1.65772536919479
H           -0.61655988264463       -2.23502363159864       -0.60053745574591
H           -4.65033606452276        3.73754658394278       -0.28177150881951
H           -4.54244558240877        2.58270031423244        2.53677960860262
H           -5.68540458372322        2.10384683831136        1.28764583506225
H           -5.71266070122002        3.75173428160742        1.93619243578080
H           -2.53700215627587        4.19135535982785        1.85911046758668
H           -2.72136389350124        5.07474608233930        0.32241463815145
H           -3.91173963168203        5.28416965220219        1.59170938292131
H           -1.23286885905214        1.26796284378556        2.78093813075144
