72
 energy: 74.750576383791 xtb: 6.6.1 (8d0f1dd)
N           -1.85638640645617        1.95878565761702        2.33142342718889
C           -1.86373745386796        1.94634708156620        1.08651140999661
C           -2.95577072522639        2.15433685774837        0.11207714066031
C           -3.55816770515220        0.78277368556143        0.05221949322221
C           -4.62729395308334        0.29504631733100       -0.66960806869444
C           -5.04826036786525       -1.01612610034473       -0.49305451679542
O           -5.95780254219758       -1.64451508354511       -1.28556233521743
C           -6.57799585984502       -0.87654720004404       -2.27741900361775
C           -4.51533828482129       -1.79810071137376        0.55298076205818
O           -5.02860740851291       -3.05975345137765        0.65728086602014
C           -4.53895640929184       -3.93121118167911        1.63040651296679
C           -3.44113805997767       -1.28772921385648        1.25221394165304
C           -2.84981075931241       -0.12227540464522        0.78562995866188
C           -2.25040882297239        2.51819797313631       -1.20275668040134
C           -1.38513600171539        1.37096690710562       -1.79892664764743
C           -0.09564433834366        1.15833063856093       -0.97344724794493
N            0.37138585441696       -0.13035586326861       -0.42672109655178
C            2.23870158876648       -0.14865446697270       -0.06489189292982
C            3.13635307373510       -0.53986601345902       -1.21002490034110
C            4.51542650316904       -0.39552897672919       -0.62434357926358
C            5.20495554106957        0.77756965769031       -0.82089999768630
C            6.52956301223403        0.85803295910613       -0.44270657695693
C            7.15324015929958       -0.23507254060687        0.12746490508108
O            8.45353215570830       -0.27405936881493        0.52070081984026
C            9.24560311676325        0.86125401226973        0.29840267841652
C            6.42998594176452       -1.42374981045959        0.35233693692550
O            7.12014836806254       -2.43983693702790        0.93346125652740
C            6.46308443070456       -3.66175432663248        1.14514113536501
C            5.11357657035387       -1.49279230330756       -0.03341396657945
C           -0.19679887562017       -1.34135885399518       -0.98775710021132
C           -3.99178136888421        3.21461880580744        0.55680782916839
C           -4.73878774530397        2.81591416962168        1.82883447570476
C           -3.34099863938051        4.57411019701498        0.76805050895518
H           -5.05904705225476        0.90479325717655       -1.44474228242690
H           -7.08822025478346       -0.00919001074208       -1.84750863784858
H           -7.31405835746621       -1.53603895538937       -2.72798972491192
H           -5.86814590775542       -0.54597432235161       -3.04374924000130
H           -4.73701579635844       -3.50959830112287        2.61519701269841
H           -5.09672513507563       -4.86071829727906        1.51552777105219
H           -3.47133857642202       -4.14991250563655        1.51818847906285
H           -2.99872710578900       -1.83479664093701        2.07767102408504
H           -1.80099077124561        0.02530032529272        1.01281861126330
H           -3.02818774374539        2.77978349943229       -1.91237052121926
H           -1.59833721142699        3.36844641058549       -1.01110231954445
H           -1.98956494393961        0.47128557102434       -1.81290175503888
H           -1.19132775771885        1.60768680111709       -2.84939817765956
H           -0.61517804049925        1.77792593105308        0.13574870401456
H            0.72762053606345        1.70289040563123       -1.48789078929951
H            2.30813284407570       -0.86936788191045        0.73263917541325
H            2.44317588709273        0.85967517981957        0.25464000564496
H            3.01280985267947        0.11113754740076       -2.08518888026248
H            2.93885614754917       -1.56695534422418       -1.54842360172631
H            4.72097499395246        1.62480120573096       -1.28675819452893
H            7.05931721429433        1.77551219572042       -0.62546692617555
H            8.86763358336044        1.72863403048799        0.84874225590220
H            9.31905321673465        1.10904473881202       -0.76747280922115
H           10.23587525844535        0.60370561127320        0.67140225688783
H            7.21293947894490       -4.31611335107738        1.58938511958455
H            5.62132443887231       -3.55544336700644        1.83626468141512
H            6.11402185908477       -4.10743623253781        0.20728691584080
H            4.53180413485105       -2.38783373478253        0.11417536492229
H            0.03270012987586       -1.56126981513289       -2.03732190748601
H           -1.28131608665337       -1.21559041469134       -0.88838605915945
H            0.08594337950806       -2.20310174772522       -0.34521046749683
H           -4.70802882381969        3.27622929242501       -0.26775813280646
H           -4.05497016877878        2.75161482403562        2.66305632169966
H           -5.23367782680408        1.85340903498149        1.72227053825119
H           -5.48825208293532        3.57005963133641        2.05722025868072
H           -2.55637198807977        4.49502502959111        1.51909837048367
H           -2.90560284794003        4.95252018734960       -0.15156503277719
H           -4.09524758812104        5.27831482618239        1.11390529863616
H           -0.94744936905383        1.97155593592056        2.79672896062234
