72
 energy: 49.578295951596 xtb: 6.6.1 (8d0f1dd)
N           -1.47645560172619        1.90836839618615        2.01513074775861
C           -2.39805080152044        1.53474305017332        1.25210893064979
C           -3.13557323951811        2.24529856173829        0.11183815380623
C           -3.79702028501584        0.89732563317934       -0.13016807274707
C           -4.83297122618483        0.30572090671572       -0.79970218480951
C           -5.10355255190280       -1.03133990953051       -0.50775148297414
O           -6.04888988894844       -1.76061308171096       -1.15643446761759
C           -6.73397251634933       -1.14118510219366       -2.22374129793440
C           -4.45741517120596       -1.66269866771175        0.59481056861128
O           -4.95534393927075       -2.91492584533085        0.84342343914088
C           -4.41125417517485       -3.73724572181116        1.83497079252072
C           -3.48545596050001       -0.99812420859317        1.34206435904673
C           -3.07103205455107        0.26703823547775        0.89808719367747
C           -2.27149466673116        2.69076131583201       -1.08193036808749
C           -1.52292156631015        1.55303392371530       -1.77129605140496
C           -0.24597901674367        1.06585310179375       -1.02207938996205
N           -0.48175300000420       -0.16032723118973       -0.29421297604937
C            2.72165980698439       -0.14216581685007        0.04238637192632
C            3.32593588206451       -0.54339163919637       -1.23394047093799
C            4.61982867171312       -0.38385316179388       -0.51809285432652
C            5.31021222791320        0.82575551505233       -0.59039859269361
C            6.64490642865321        0.86811657063302       -0.27263502587091
C            7.29550608327983       -0.26242874629669        0.19090379887334
O            8.62049784610704       -0.34260000500441        0.48977163116662
C            9.41703963264964        0.78802222472443        0.27228337018690
C            6.56052311857794       -1.44890710633697        0.41663297069587
O            7.27217286052605       -2.49281160607578        0.91374742098996
C            6.60881054496681       -3.70990088354644        1.13622559937539
C            5.23431410766331       -1.49413562838271        0.09274904235667
C           -0.56837000547332       -1.30758203901361       -1.17777302441737
C           -4.06970475289300        3.36276562430412        0.57466311814654
C           -4.96428457838797        2.88476311430573        1.71163301001999
C           -3.27792965534318        4.58116559522683        1.00328084925725
H           -5.40904237194016        0.83485104148464       -1.54474975088054
H           -7.32127495582663       -0.28432872406679       -1.88060572482565
H           -7.41606383923456       -1.89199146982765       -2.60648199290021
H           -6.06460594379773       -0.82698800112532       -3.03496571726237
H           -4.60549485981570       -3.28442323540009        2.80460262999767
H           -4.90926328704761       -4.70682508780156        1.79911444858828
H           -3.34196263655642       -3.90085571303215        1.68391391404900
H           -3.00790382003533       -1.49716198043702        2.17179834471101
H           -1.50229674262975       -0.10000030862500        0.06539518734265
H           -2.93601790234009        3.13448807418735       -1.84401363621489
H           -1.56183587710954        3.44828773266612       -0.76820992900819
H           -2.18198734296921        0.70256088889292       -1.91694996684453
H           -1.22147608962565        1.87626181007914       -2.76513833226855
H           -0.07324230445361        1.85321729217467       -0.27502540240925
H            0.57528713152759        1.08214917501958       -1.80242506865717
H            2.57655202531616       -0.86950014832550        0.80934243316667
H            2.63347502896632        0.89350869369327        0.28421385343370
H            3.22209624367622        0.15900208339725       -2.04941306894110
H            3.15246483722782       -1.56309250792965       -1.54601320030725
H            4.81972278358510        1.69785586351408       -0.99839956907642
H            7.17988690218246        1.78332033422457       -0.44860001393336
H            9.08943110501485        1.64227722596275        0.87685436536900
H            9.44274699551331        1.07762174337215       -0.78508872336000
H           10.41859036410564        0.48557660977967        0.57512955573683
H            7.37953869867592       -4.37810368986948        1.51887681254070
H            5.80664341096539       -3.61515566955228        1.87625871814127
H            6.20774259448137       -4.13384285816285        0.20975849431507
H            4.65646951814251       -2.38894680288839        0.25289740548646
H            0.17116077370789       -1.32519174033678       -1.97750813487222
H           -1.53184115202714       -1.24199582536071       -1.64605756152391
H           -0.43136985745275       -2.20493980379767       -0.57321058471247
H           -4.68323759349205        3.60017863862172       -0.29161514851645
H           -4.38470627298872        2.62388919333052        2.59418888127896
H           -5.54161761243529        2.00773851209715        1.42914588289318
H           -5.64234588750544        3.69034759446957        1.97451657501331
H           -2.54044579492631        4.29591725410721        1.75706898843110
H           -2.77777723177975        5.04536815866705        0.15894508772359
H           -3.96839707756344        5.30069912157195        1.43344120694508
H           -1.23116856602295        1.24967352093926        2.73551136874968
