72
 energy: 33.160569219317 xtb: 6.6.1 (8d0f1dd)
N           -1.74879123178049        2.20614991146762        2.28700442791169
C           -1.73687176106158        1.99917350003377        1.05364815817093
C           -2.90496099701823        2.13457771385217        0.14364912025991
C           -3.50536427960188        0.76033292915519        0.12836160981555
C           -4.54897456435616        0.28872139594186       -0.64626024562285
C           -4.99977076915686       -1.01373491080844       -0.50054193165306
O           -5.92197195087981       -1.60595612891565       -1.30704249150116
C           -6.53259547293299       -0.80945953995688       -2.28326662219172
C           -4.48896863276155       -1.83408567999391        0.52593932442339
O           -5.02735896719718       -3.08939078102411        0.59691603316691
C           -4.57054229051811       -3.97520197238702        1.57520410890263
C           -3.44436944665353       -1.34919006358608        1.28381820338928
C           -2.87137232401738       -0.13752360185104        0.93198478871078
C           -2.23942399589964        2.46461192524759       -1.20270279826918
C           -1.34563566490063        1.32310945979994       -1.77208909924449
C           -0.05378046321664        1.17332199720328       -0.99924337790141
N            0.48586806381455       -0.09678968713742       -0.45289508272110
C            2.11512522035314       -0.14842264368465       -0.11794532994731
C            3.08259252365138       -0.54591928925804       -1.24052415153488
C            4.47595541624339       -0.40714884036468       -0.68530194772684
C            5.17239451723569        0.76456903334802       -0.87894626255367
C            6.49334630489972        0.85412884316625       -0.48308321841002
C            7.11411265554612       -0.22810129626000        0.11053860976028
O            8.40927511872360       -0.25791146628336        0.52327616355576
C            9.20160888775318        0.87849041832498        0.30365478198962
C            6.38976792431914       -1.41706656262488        0.33407725449680
O            7.07801405282926       -2.42504585755933        0.93373819253131
C            6.42631594534465       -3.64953880097758        1.14690517985820
C            5.07665446746846       -1.49256374223048       -0.06907501338295
C           -0.16419711976393       -1.33371638396562       -0.89043056492741
C           -3.96407299663503        3.17901764627027        0.56186569756706
C           -4.67926598619188        2.80436178038421        1.85855961762001
C           -3.35525505491623        4.56582797955442        0.71210530895332
H           -4.95680298825261        0.91720267642050       -1.41986582073938
H           -7.02824188912441        0.05798772099412       -1.83678598517184
H           -7.27965998870916       -1.44837370107054       -2.74651641750776
H           -5.81794573159323       -0.47614219706659       -3.04347695229070
H           -4.77317675332833       -3.56206096889197        2.56397511213456
H           -5.14504327960751       -4.89094258159225        1.44017010382334
H           -3.50536768742193       -4.21203791637564        1.47707558354330
H           -3.01479674154965       -1.93218288144646        2.08825612678408
H           -1.86294163290841        0.06156449748202        1.28031786119011
H           -3.03155740360231        2.68049174697260       -1.91142786867606
H           -1.60896240016667        3.33963850806886       -1.06020623306345
H           -1.93129475014963        0.40947545543285       -1.77077061121601
H           -1.15026905108012        1.54883554480600       -2.82452158206197
H           -0.77239802724514        1.79856006063851        0.34082964122750
H            0.74993389320302        1.81543440871448       -1.37973349255010
H            2.26368667992325       -0.85530485365001        0.69352973915919
H            2.35872315289557        0.84808114918572        0.22611430549000
H            2.95168079204117        0.09975690363347       -2.11320243478693
H            2.87618817192608       -1.57524463729961       -1.54985889223326
H            4.69599234647467        1.60931687769724       -1.35606703141677
H            7.02495154116794        1.77156380637564       -0.66583893528752
H            8.81351029884086        1.74947543020237        0.84112928070336
H            9.28929676017988        1.11772933382045       -0.76287031193375
H           10.18678073674782        0.62697440223078        0.69354768083129
H            7.17334555273672       -4.29686436987927        1.60546135595565
H            5.57537458711279       -3.54278329149826        1.82688199579241
H            6.09055094093438       -4.10292580828418        0.20788862991135
H            4.49954091022600       -2.39023185066764        0.08356766227941
H           -0.05445918797090       -1.58318975647990       -1.95995342661482
H           -1.23803724710748       -1.22911735652972       -0.68373714818275
H            0.19988434584500       -2.17110324620577       -0.26945883554889
H           -4.69736259631672        3.19350425882242       -0.25047229915488
H           -3.97709484874355        2.78719409186783        2.67924055326299
H           -5.14705953116035        1.82584416207167        1.78829490608958
H           -5.44750243414469        3.54275927109515        2.07514598249229
H           -2.56475955034285        4.54192456548552        1.45806790331418
H           -2.93909495319571        4.92098632771606       -0.22550451596563
H           -4.12781061218620        5.25956730572193        1.03589455723247
H           -0.84793208593850        2.17383968086947        2.77317810685797
