72
 energy: 53.205557857335 xtb: 6.6.1 (8d0f1dd)
N           -1.45177516680815        1.92790147837180        1.97549144448966
C           -2.38352454883543        1.53024548920346        1.23991549944675
C           -3.13043892553943        2.23246870834353        0.09827718541390
C           -3.79102813462679        0.89146745862359       -0.12310268887957
C           -4.83301698387112        0.30595933516284       -0.78001182017131
C           -5.11609284716217       -1.02594400074581       -0.49227051343486
O           -6.04148021974059       -1.74819898908391       -1.17144515034630
C           -6.71636877660555       -1.10804219377837       -2.23163808026834
C           -4.47538509032698       -1.66970680150564        0.60554552880871
O           -4.97621371744693       -2.92562686151988        0.83656521886806
C           -4.42773830483707       -3.76197806799050        1.81049971221848
C           -3.47447645990693       -1.02047512526205        1.32787341721435
C           -3.09413553262330        0.25632037890328        0.90697824043241
C           -2.27935838470551        2.68120677612050       -1.10485759148672
C           -1.52211612252272        1.53882188147561       -1.78315703819248
C           -0.26432706491230        1.08153271581395       -1.01792595641158
N           -0.47500012756590       -0.15014474483268       -0.27088213880751
C            2.62111320657627       -0.14603689369798        0.03002992283387
C            3.31829191076916       -0.53726763070418       -1.21187179253279
C            4.63549765291719       -0.39242845779934       -0.54796646687791
C            5.30212351305621        0.81739713679530       -0.62054811120416
C            6.63682938678873        0.86721429470332       -0.29569366615672
C            7.28000869826765       -0.25931655841882        0.18226995899497
O            8.60066890623931       -0.33231283890772        0.49997348782299
C            9.39558046521948        0.79876695859404        0.27695189917182
C            6.54893554288350       -1.44593794894725        0.41172516880435
O            7.25509442633760       -2.48628261692362        0.92276459200675
C            6.59015667025307       -3.70416609044078        1.13811287164120
C            5.22111636259827       -1.49038583856969        0.08675636557973
C           -0.50860688580756       -1.31169929304768       -1.15869053097791
C           -4.06245853253833        3.34441909057686        0.57223101235661
C           -4.93651117239468        2.87510452618752        1.72848656748012
C           -3.28567575493846        4.58053865202913        0.97383170503435
H           -5.39028313906875        0.84263173385896       -1.52625064562140
H           -7.29265773572393       -0.24761026740202       -1.87904583810724
H           -7.40555268380055       -1.84759712367956       -2.62349339016895
H           -6.04049685839242       -0.79180982673247       -3.03659830410060
H           -4.62020215751495       -3.31661447215823        2.78389429028058
H           -4.93307603138317       -4.72690713228464        1.75800036382287
H           -3.35905706408432       -3.93079577605172        1.66049432350387
H           -2.97521042525252       -1.51997334053208        2.14302576307410
H           -1.49178074579718       -0.09144285660707        0.10802820834760
H           -2.96218388180731        3.10369609403467       -1.85994533883464
H           -1.57150128179525        3.44539829251505       -0.80048648568449
H           -2.20583154390341        0.69504940083254       -1.91350868606972
H           -1.23399660853125        1.84384811852359       -2.78972459435359
H           -0.13507130388066        1.85503627933118       -0.24135121289900
H            0.58317018393457        1.14616019511307       -1.78246148231651
H            2.62656467140463       -0.85690388393059        0.83631816315477
H            2.65817180057165        0.89351737814957        0.28737352644464
H            3.20158449442433        0.16300981218475       -2.03294385965868
H            3.12733167883570       -1.55165444615864       -1.54031065979856
H            4.80842468467602        1.68256668712592       -1.04275794995513
H            7.16842190778128        1.78315513046373       -0.47475408960164
H            9.06144751482890        1.65561869178945        0.87313135388248
H            9.42359529319616        1.07972218933608       -0.78250222636397
H           10.39658238439451        0.50431903557796        0.58811170051877
H            7.35702909606830       -4.37269884336012        1.52768544277803
H            5.78250915185992       -3.60874362177928        1.87144930949911
H            6.19470614121406       -4.12719308386205        0.20870323289977
H            4.64221542616789       -2.38744167096546        0.23359349618484
H            0.20824149283432       -1.36245463622673       -1.98389927764977
H           -1.46715882863039       -1.21716604118645       -1.61727142885396
H           -0.37479053350062       -2.21566073600947       -0.54972003113624
H           -4.68883429349472        3.56141868942221       -0.29031467996967
H           -4.34185215161390        2.64106219643200        2.60704360419700
H           -5.50488628272834        1.98583422723978        1.47029679547930
H           -5.62499620688166        3.67296361923896        1.98487396572369
H           -2.54128106840217        4.32265089020594        1.72818740318338
H           -2.79428420447502        5.03418640595963        0.11949890028835
H           -3.98412605830433        5.29851963275685        1.39306251437262
H           -1.15020888605780        1.30951883202495        2.72994075657657
