72
 energy: 75.349512577541 xtb: 6.6.1 (8d0f1dd)
N           -1.62500120548404        2.07050404025695        2.13826406644286
C           -2.27978298787713        1.57397949709420        1.21096732737085
C           -3.07718094279577        2.21176171340786        0.08784982368653
C           -3.70686042275953        0.85348895778369       -0.07690990608447
C           -4.75441193067415        0.29918835366864       -0.74142637742643
C           -5.12754972697647       -1.01241805270298       -0.47192817982466
O           -6.01645359677576       -1.70513973901805       -1.21707509075879
C           -6.66252625472157       -1.00955396590734       -2.25491151081918
C           -4.49762361770037       -1.68987169579755        0.60258453764634
O           -4.99342791061489       -2.96317113030084        0.77627717407456
C           -4.47209988837824       -3.83148672295512        1.73586500714444
C           -3.41820865717040       -1.08430407737310        1.26954845343079
C           -2.92269148463493        0.19290151339340        0.86103147967932
C           -2.28532014080314        2.62816736166406       -1.16207940489980
C           -1.49937418353864        1.48233931845316       -1.80305956098701
C           -0.23319737159058        1.14793406806734       -0.99497711343293
N           -0.29219888011697       -0.12413529394983       -0.25630994812024
C            2.46867967093607       -0.14397065233516        0.00589977082128
C            3.25002930062380       -0.53736720440206       -1.19798504338503
C            4.60080571842756       -0.39506540687250       -0.57646134955896
C            5.26863538148400        0.80036315685567       -0.71296116842076
C            6.59756378587803        0.86323328358470       -0.36254434041714
C            7.22951192184732       -0.25153222080581        0.15657982304867
O            8.54086460726758       -0.30689070240298        0.51622772174826
C            9.33249346485555        0.82532404500075        0.28821065588293
C            6.50442370455705       -1.44120480998356        0.38302354821947
O            7.20100540128167       -2.46960441943629        0.93387966903080
C            6.53631097501688       -3.68694881205629        1.14226238068660
C            5.18262413157660       -1.49662175745940        0.03195877689101
C           -0.38616327563773       -1.31443441054365       -1.11178617531347
C           -4.03496976560850        3.29701307134886        0.56605528202009
C           -4.85564929660641        2.84996238889000        1.77380991217547
C           -3.31011349866323        4.58796001385987        0.88818574132902
H           -5.25579257278795        0.86744534371484       -1.49899403773668
H           -7.20754788104765       -0.14421642801760       -1.86738575104563
H           -7.37390564205830       -1.71370123281186       -2.67611643335469
H           -5.96790016487971       -0.68724092488592       -3.03992174498113
H           -4.66771810470387       -3.40003491226367        2.71452263908394
H           -5.00363751097777       -4.78036270785155        1.65129930501777
H           -3.40442860859345       -4.02662959502658        1.60116003606402
H           -2.96239143816859       -1.63412075058657        2.08401697680232
H           -1.36015672550287       -0.08714202788294        0.36233392121713
H           -3.01238778896020        2.97755343860817       -1.89056364042618
H           -1.59406134920892        3.42336068659494       -0.89856092329467
H           -2.13165802199251        0.59890501196448       -1.86984582143320
H           -1.24507673078978        1.73689874645711       -2.83570703989121
H           -0.31800528266449        1.85382609858615       -0.12934750125696
H            0.64028728896052        1.36818302186374       -1.64604267763743
H            2.53926587618327       -0.86083829038264        0.80853965609276
H            2.64951802962753        0.87912078075980        0.30660094608339
H            3.12985502003015        0.13515473453807       -2.05284249813007
H            3.05873650179299       -1.55737669060067       -1.55448612541043
H            4.77300074069718        1.65536941036852       -1.15140473719551
H            7.12521330992251        1.78169991721389       -0.54031746509498
H            8.97798227364218        1.68736705268389        0.86300980642603
H            9.37750779623720        1.08981097906497       -0.77502172720424
H           10.33173508398761        0.55220943237658        0.62519705443658
H            7.29355370749182       -4.35325050098697        1.55537465147842
H            5.71316615103336       -3.58523554969248        1.85610069506932
H            6.16020838726900       -4.11703365319748        0.20772236776698
H            4.59636985732003       -2.39007939292133        0.17481822239526
H            0.21634579290379       -1.41752329369365       -2.03231907129462
H           -1.41817543594000       -1.22033135470596       -1.36399824466062
H           -0.16956108232342       -2.21753647446542       -0.48124814891626
H           -4.70324453041655        3.44476032020162       -0.28012611999585
H           -4.22109175101111        2.69586652165227        2.63569959350167
H           -5.39462713583923        1.92486006131833        1.58434440900092
H           -5.57332436891372        3.62631548615824        2.01885866996385
H           -2.54859998899897        4.40135263715743        1.64461917737175
H           -2.84123540306098        5.00427233359644        0.00298650906555
H           -4.03408987601089        5.30141228032510        1.27320169018821
H           -1.07931660424652        1.53989766886736        2.80473573440487
