72
 energy: 16.083462226476 xtb: 6.6.1 (8d0f1dd)
N           -1.59931861346840        1.91765985750632        2.04809139679588
C           -2.49121276785663        1.52243835694696        1.25922427096467
C           -3.20282923179934        2.25832360966932        0.10971537493392
C           -3.94102487227478        0.93891138317581       -0.09341865973455
C           -4.88498448592979        0.29203276165005       -0.85725971279134
C           -5.15809693336055       -1.03064577086355       -0.50381637521227
O           -6.05772278289958       -1.82868882918377       -1.13550625770551
C           -6.81344747477677       -1.30251857788117       -2.19724798761821
C           -4.49543627203908       -1.66302977024884        0.58575543665618
O           -4.88660417433830       -2.95133587376271        0.79653193204109
C           -4.34190600261357       -3.65145337391063        1.88573445308154
C           -3.54414380646957       -0.99256687720499        1.34341512223055
C           -3.28764437408675        0.31625856406613        0.97103956942931
C           -2.31213759130632        2.69616740483170       -1.05699229990670
C           -1.56488897281582        1.57205340605781       -1.78070771909151
C           -0.27573373705683        1.08009898779526       -1.08038999522874
N           -0.32626150834190       -0.18935328013767       -0.38832871851546
C            3.07489984347330       -0.13883958788986        0.08960009089459
C            3.36701638596110       -0.55937022374329       -1.30507110294576
C            4.53138664839258       -0.32385109616932       -0.33491201944537
C            5.34566238404273        0.86906454908120       -0.53030161532696
C            6.68528115272826        0.87033000699176       -0.27966605010988
C            7.34022184473353       -0.27455025364267        0.18416501748707
O            8.67335136372127       -0.37224189660970        0.45635299125622
C            9.48961359414605        0.74955642623543        0.25725580392290
C            6.58841826967024       -1.46867605309252        0.40799750724603
O            7.33302538394518       -2.51665361085026        0.86882889403372
C            6.68859011486878       -3.73691803312719        1.12136201610967
C            5.25173085799243       -1.49699408483156        0.16483546702371
C           -0.63813557629317       -1.33221541666206       -1.21408076973134
C           -4.09990910317632        3.41487005782156        0.59523648244595
C           -5.07054135976695        2.94437537114862        1.67933079872518
C           -3.25597423004128        4.57234619593657        1.12788291488354
H           -5.39143772313911        0.77182991522265       -1.68026249012795
H           -7.42263348630594       -0.45053785772863       -1.87740850466273
H           -7.46848356975562       -2.11255457371443       -2.51508295676688
H           -6.17960494098931       -1.00138356161774       -3.03798880866873
H           -4.56074644013099       -3.15468305112945        2.83722664713557
H           -4.82417038775000       -4.62763440657532        1.87192721103172
H           -3.25906564809339       -3.78337456648417        1.78522530955545
H           -3.04043288226566       -1.46541680464733        2.17187684282715
H           -0.94143762287960       -0.14787420004886        0.41241902035134
H           -2.95442188651035        3.20002398057255       -1.78580262201907
H           -1.58701019475339        3.42166493931597       -0.68772157038609
H           -2.24195631514936        0.73006669855069       -1.93630780476166
H           -1.29005910314031        1.94687169934559       -2.76900196718595
H            0.04590174549511        1.82817674338817       -0.35177452721220
H            0.51620538147051        0.97396122804427       -1.82912052912192
H            2.66161824590490       -0.86670819096322        0.76834768049686
H            2.73560567851544        0.86922361540653        0.26347551131606
H            3.24430751589241        0.15872978960522       -2.10076891426816
H            3.16772214347878       -1.58003997501212       -1.59133320207305
H            4.85294087981727        1.76006213722559       -0.88628014429017
H            7.24602299582999        1.77778110892756       -0.44433282834798
H            9.19308373697862        1.58869708902136        0.89652345633533
H            9.48808166256788        1.07468526012241       -0.78924156103158
H           10.49297038445736        0.42629046743291        0.53145441600049
H            7.46864481978326       -4.41025706770331        1.47431765355740
H            5.91978200079567       -3.63706481296938        1.89550144182418
H            6.23611852684497       -4.15235060547183        0.21408444958791
H            4.66834197384419       -2.38855446088574        0.32756902022814
H            0.11576464241249       -1.39915861280169       -1.99966545923192
H           -1.63135360714034       -1.30262228031446       -1.68856098190730
H           -0.58826340927390       -2.23090005820049       -0.60049759878240
H           -4.68918032332436        3.76122377575722       -0.26340581996205
H           -4.52459808030352        2.61401138586696        2.56058607378033
H           -5.68759962325546        2.12029540694646        1.32649742343184
H           -5.72607297169631        3.76232443038470        1.96999420932318
H           -2.52783085181518        4.19715814526707        1.84267180414814
H           -2.72873981729148        5.08085293652154        0.32544026204334
H           -3.89347841057459        5.30010741349463        1.62496515632256
H           -1.28387981863205        1.24178342768142        2.74228477282659
