72
 energy: 22.575584838679 xtb: 6.6.1 (8d0f1dd)
N           -1.43869310741683        1.81770193652701        1.93487230746809
C           -2.43845277349613        1.50293638680405        1.24662322976648
C           -3.16466808546651        2.24907924785465        0.11955079475140
C           -3.89489555144856        0.92603476798776       -0.10901611608173
C           -4.84288755117985        0.28748870761724       -0.87579457424089
C           -5.11612005551306       -1.03511358517492       -0.52122122109261
O           -6.03163012481445       -1.82583803889181       -1.13898885131718
C           -6.81650529669935       -1.30681352322612       -2.19186466011017
C           -4.47107844893955       -1.64950550178304        0.58959306938616
O           -4.86145677419442       -2.93723684812070        0.79498814361298
C           -4.34433768274867       -3.63999157544399        1.89976670005585
C           -3.57263460620821       -0.96384249296441        1.39248452710377
C           -3.29214125152759        0.33689766942218        1.00702338452173
C           -2.28312435090199        2.69797339448742       -1.03660859631898
C           -1.53756935861222        1.56510887201298       -1.74909862304070
C           -0.23136290265619        1.06772813489031       -1.05195472472296
N           -0.36977208640992       -0.17401781246517       -0.31025519114543
C            3.11522648994459       -0.13276707581126        0.11711408837429
C            3.36256693759027       -0.55744046889467       -1.29304822168765
C            4.53820811551831       -0.32952156314077       -0.35014497194008
C            5.36193260921273        0.84887606302318       -0.56653065404795
C            6.69223368093424        0.87117632754104       -0.26460557853861
C            7.34853140756449       -0.26871103939816        0.20503545038476
O            8.68278750666892       -0.36869865216076        0.46859863552086
C            9.49424799590899        0.75303986650976        0.26057220131903
C            6.59535289715841       -1.46023637592893        0.41934091845891
O            7.33326614690470       -2.50692655033564        0.89601734967795
C            6.69099227477214       -3.73242648161170        1.12466035152207
C            5.26555629107260       -1.49969411481093        0.13629566460532
C           -0.62746580537207       -1.31127530873017       -1.18775420106202
C           -4.08775667223073        3.39295136985684        0.59449547382073
C           -5.07371768515669        2.93286129161537        1.66603538169935
C           -3.25479401371146        4.55733548929248        1.13196545005103
H           -5.35771486828536        0.76799761269381       -1.69234926116770
H           -7.43907756625795       -0.45977456715388       -1.88210384606526
H           -7.46766784688480       -2.12170070846163       -2.50659020169979
H           -6.19334259385733       -1.00890289078315       -3.04059243064012
H           -4.54774132657691       -3.15900538547687        2.86624993340201
H           -4.82450627727369       -4.61906737083664        1.86591980038616
H           -3.26573823054258       -3.76290389250167        1.78269793656940
H           -3.11041411071704       -1.42175832650988        2.25243592858667
H           -1.23077835539664       -0.09993729720442        0.26359466849662
H           -2.95083948031164        3.19161787930912       -1.75411958344898
H           -1.55673198149630        3.42819699904015       -0.67408988300228
H           -2.22974294850426        0.73457111748584       -1.90557853360198
H           -1.26276353108518        1.93869839009383       -2.73857585697814
H            0.11704296168792        1.83169628345675       -0.33817252219494
H            0.51804886747281        0.92827214579143       -1.83377665372898
H            2.63994999755856       -0.85876977266437        0.78508173560073
H            2.72153645687207        0.87344817510748        0.27849328314078
H            3.23114133719765        0.16391291203032       -2.07519263196274
H            3.15900254494311       -1.57374379127475       -1.56652560547195
H            4.87105945127025        1.72737610406929       -0.94805925912575
H            7.24479894573965        1.78573305532266       -0.41785890123408
H            9.20359456907223        1.58989422169405        0.90110867706065
H            9.48922748594106        1.07839011655888       -0.78588291642566
H           10.49800993641440        0.43354367869267        0.53384878688529
H            7.47534455005556       -4.40551634267601        1.46584050030644
H            5.92373989271409       -3.64792778377079        1.90181856794165
H            6.24192093824746       -4.13800554868078        0.21221953204927
H            4.68089062330185       -2.39222603176274        0.27361037847544
H            0.14474847231577       -1.34845433364036       -1.96460245640081
H           -1.62181588032175       -1.29797554200563       -1.68261587096732
H           -0.60972762179943       -2.22916519759837       -0.59534484117820
H           -4.67428486372770        3.74155683017297       -0.27224378537954
H           -4.53183392459613        2.60471484351325        2.55243954037697
H           -5.69811403838149        2.12002769352697        1.29980085522640
H           -5.72687642978036        3.75479510997274        1.95141577643344
H           -2.53910444783165        4.17533750905107        1.85373383538023
H           -2.71297311394064        5.07446771862359        0.34592076246015
H           -3.89763939717421        5.28317161229784        1.62665058262538
H           -1.21873880254089        1.26098821048292        2.75968653718120
