72
 energy: 63.795313302092 xtb: 6.6.1 (8d0f1dd)
N           -1.53230524923590        2.02553631912949        2.06137085538683
C           -2.32095819019166        1.56039134028576        1.22044222563532
C           -3.10225078563983        2.22153300128278        0.08730380530791
C           -3.74176894976249        0.86970433909103       -0.08966126657879
C           -4.78589732911760        0.30338488596084       -0.75238395571257
C           -5.12960256569350       -1.01292164000974       -0.47327371311141
O           -6.02515990257595       -1.71731953639109       -1.19974002047472
C           -6.68042639714781       -1.04188455216346       -2.24722720102542
C           -4.49371082121023       -1.67698086198520        0.60869102476661
O           -4.98973826363537       -2.94732352824273        0.80109765947629
C           -4.45675543437579       -3.80669113243619        1.76132914087454
C           -3.43377794468324       -1.05510963035862        1.28955763491851
C           -2.99344875486587        0.23239578216940        0.89403514328162
C           -2.28909061724486        2.65096245679222       -1.14566544594362
C           -1.51266866297261        1.50508311557991       -1.79661382831723
C           -0.25428950859171        1.11989432181810       -1.00255432271684
N           -0.36657555413074       -0.14170797016641       -0.25635218011531
C            2.47953827750711       -0.14633871807510        0.00799896637904
C            3.27640703581314       -0.53566298704815       -1.19339154075025
C            4.62540704152848       -0.39703473410921       -0.57493203062741
C            5.28329612198320        0.80510203370661       -0.68667833342203
C            6.61391239855006        0.86445736986874       -0.34251054415132
C            7.24811425319996       -0.25469778464744        0.16289036611575
O            8.56116851370326       -0.31460698768682        0.51421753195800
C            9.35398017854706        0.81682892280864        0.28571447946886
C            6.52178014728398       -1.44336051046543        0.39144552257434
O            7.22020124356209       -2.47497736146010        0.93102374483758
C            6.55457008140032       -3.69256496184720        1.14082939952932
C            5.19739249021383       -1.49453464957542        0.05027565216126
C           -0.42814183211610       -1.33445691290591       -1.12130425412868
C           -4.04520581109940        3.31447939592670        0.56874051331907
C           -4.88172361540818        2.85952025633942        1.75815792115479
C           -3.30237971836584        4.58543205485073        0.91699982116450
H           -5.30184762166071        0.85779264757964       -1.51044860821886
H           -7.23599906350768       -0.17802336689223       -1.87221853149876
H           -7.38418898380981       -1.75822217863075       -2.65897751300576
H           -5.99186765271590       -0.72173853597415       -3.03898882122861
H           -4.65117358621857       -3.37224489682958        2.73876976900078
H           -4.97903863364033       -4.76053657398512        1.68453573585552
H           -3.38918326842659       -3.99293515780803        1.62011544705599
H           -2.95819079028485       -1.59376352958117        2.09339123590592
H           -1.36656744734521       -0.11281163376863        0.30397528770590
H           -3.00431452533560        3.02003153856645       -1.88599015723549
H           -1.58916706923655        3.43321101410409       -0.86722386664911
H           -2.16704632043612        0.63625437727561       -1.88640998340270
H           -1.25033589884393        1.77352111295332       -2.82653927253295
H           -0.25841737864804        1.85365069232124       -0.16728129520027
H            0.61317683586857        1.28990969475571       -1.69520069121001
H            2.58209614644837       -0.85540004810944        0.82078023591902
H            2.67213153540163        0.87806676759946        0.31166271298564
H            3.15720606785853        0.14421336884072       -2.03902132593452
H            3.08848473616923       -1.55276290783977       -1.54797422528621
H            4.78563850637186        1.66300504934823       -1.11724517327855
H            7.14081794346963        1.78312132928290       -0.51811730112282
H            9.00605194130755        1.67747241545304        0.86673576915035
H            9.39258456071804        1.08561317254757       -0.77614351380561
H           10.35396744025527        0.53675963659296        0.61339102031773
H            7.31471598900292       -4.36012814170662        1.54557259162716
H            5.73632082655754       -3.59350297507573        1.86092058326881
H            6.17191011124228       -4.11954668337795        0.20783508976588
H            4.61099498157339       -2.38816366517269        0.19140625732708
H            0.21829751791777       -1.45006926969698       -2.00115943158128
H           -1.43121423479993       -1.21082645722157       -1.46668897886680
H           -0.24562049956666       -2.23736400439335       -0.49469925003340
H           -4.69722469020932        3.48570013409396       -0.28107379411302
H           -4.26139892275671        2.67952281118253        2.62721989541653
H           -5.42970164692461        1.94740849923620        1.54524135523367
H           -5.59194587419610        3.64085671504496        2.00502292966198
H           -2.55139655074362        4.37532551101559        1.67571541487777
H           -2.82553593164479        5.01311967305905        0.04253129477234
H           -4.01775045194726        5.29909048869750        1.31282026656359
H           -1.09356317785162        1.44777963506609        2.77497620410558
