72
 energy: -5.703386038764 xtb: 6.6.1 (8d0f1dd)
N           -1.56253127363118        2.69916355702067        2.27503552802132
C           -1.59820354955864        2.12658160557585        1.15647521096069
C           -2.77596451414599        2.07250948851253        0.23185053133598
C           -3.34961877383339        0.66901017872903        0.29459967072631
C           -4.34395806462124        0.25347768595793       -0.58940639281439
C           -4.87457183158868       -1.02058237320429       -0.52517327870790
O           -5.83719226366488       -1.50889389993695       -1.35477396518365
C           -6.41844560878988       -0.64131354010013       -2.29265978543754
C           -4.41474501066268       -1.92464705511203        0.45791359736873
O           -4.99842885707941       -3.15597558286230        0.44138973487720
C           -4.64764300099464       -4.08078084985534        1.43617337517104
C           -3.42975446672112       -1.50961781853145        1.33129417086991
C           -2.89364582444676       -0.23101276962757        1.23177735621130
C           -2.19857779626063        2.32843741296113       -1.18355528891972
C           -1.27109015903833        1.19953138836239       -1.68143680811895
C            0.00859346752836        1.12131600852710       -0.92111204936714
N            0.62002902591403       -0.07265138323870       -0.53532667130021
C            2.00642558264262       -0.08036615216906       -0.16245078580746
C            2.95911044415174       -0.54747058005862       -1.27667543735078
C            4.37880568493815       -0.42995502316981       -0.81394442266839
C            5.09112293726454        0.73642937178254       -1.01504912570845
C            6.40379077555029        0.84437755235431       -0.58312371848573
C            7.01601327645504       -0.21202334364163        0.06593122928317
O            8.29727607364633       -0.21889938202026        0.52668639437719
C            9.09034287299527        0.92019602827017        0.31659002606467
C            6.28967317090129       -1.40324359178918        0.28906688415628
O            6.97314742118711       -2.39018649912121        0.93175554458457
C            6.33360315753777       -3.62037892995590        1.15168759416999
C            4.98363884911900       -1.49343576124869       -0.14752928008415
C           -0.07413166179224       -1.31727634315669       -0.66541877801481
C           -3.88699229263729        3.09389257485506        0.57914873292833
C           -4.52645395082428        2.77954106415438        1.92986263895507
C           -3.38770680940177        4.53601836170852        0.57440791217905
H           -4.70632028930410        0.93993204450104       -1.33662517678378
H           -6.87910112349271        0.22650574343907       -1.80914185617761
H           -7.19088580058946       -1.22744367880469       -2.78701701238833
H           -5.69159550742079       -0.30206691641255       -3.03876444590189
H           -4.86467728928820       -3.69171919354249        2.43575441438583
H           -5.26588164178936       -4.95738496686421        1.24935637533803
H           -3.59203942991152       -4.36749662576257        1.37603051715495
H           -3.06057376373479       -2.17190555895995        2.09853119633093
H           -2.08618712131807        0.03663352150212        1.89667901443896
H           -3.02424649047094        2.43416202009840       -1.88810546478327
H           -1.64094014645269        3.26555515487746       -1.17692984693910
H           -1.82317870744194        0.26187575462462       -1.64812234015975
H           -1.03115622065899        1.40585926903199       -2.73170268690988
H           -0.73217720940059        1.67623096443027        0.62539755190154
H            0.67380268277164        1.96294798955888       -1.01657430478442
H            2.14832248938559       -0.70500556527927        0.72431936982630
H            2.29895205501281        0.93817842737133        0.11736901120628
H            2.79613048241507        0.07327431135911       -2.15966796060955
H            2.71406347799207       -1.58003683908339       -1.52386990112041
H            4.63327066381215        1.56969009683705       -1.52738762414057
H            6.94027101754296        1.76048184390494       -0.76915876638608
H            8.67774229165108        1.80061357183074        0.82077953069224
H            9.21511396426414        1.13717708319312       -0.74999207616217
H           10.06017331267449        0.68071619260901        0.74954432555205
H            7.07428245489404       -4.24722059056284        1.64603040126577
H            5.46003151752640       -3.51353941223188        1.80387277814195
H            6.03106193917122       -4.09476145843441        0.21173642025356
H            4.41698365051816       -2.39805926141199        0.01012497777871
H           -0.19706072926512       -1.61941752458641       -1.71138236545563
H           -1.06302563801385       -1.24430966500050       -0.20430417382009
H            0.49829076635384       -2.08058584716769       -0.14202459279340
H           -4.65481648892484        2.99455866603330       -0.19547881226384
H           -3.79348211492708        2.88259494518767        2.72161177426412
H           -4.92104526564977        1.76698765640021        1.94742481017995
H           -5.34279501985225        3.47218866375649        2.11706305628641
H           -2.59292086546773        4.66382724263690        1.30286944856046
H           -3.02336016503993        4.83414148497062       -0.40506168144142
H           -4.20834178752873        5.19621644598910        0.84372562670919
H           -0.65023620086865        2.67523745287145        2.73881105311601
