72
 energy: 2.279425248315 xtb: 6.6.1 (8d0f1dd)
N           -1.67973200854453        2.50567727180325        2.32931766878809
C           -1.66737248227679        2.06762216101189        1.14730517705820
C           -2.82866464282861        2.09663345520427        0.20323824745038
C           -3.41469204676707        0.70882904244553        0.23224336438303
C           -4.42649768362385        0.26932976008261       -0.61150218454667
C           -4.92467471911117       -1.01711447937759       -0.51479457237560
O           -5.87007367653119       -1.54854506841935       -1.33665891859058
C           -6.46338753225770       -0.70827926370192       -2.28926021415152
C           -4.44449797712445       -1.88857299853327        0.48572489661924
O           -5.01023279117015       -3.13059837393457        0.50275740126716
C           -4.61665364908028       -4.03934348255765        1.49200710831293
C           -3.43903759519119       -1.44315975772024        1.31806001406891
C           -2.88838350054030       -0.18272063776299        1.12610748865510
C           -2.21141091890469        2.37802020656344       -1.18694747467572
C           -1.29114547381158        1.24219906408289       -1.71728230199844
C            0.00741964516597        1.11691741358882       -0.97216389386233
N            0.58890604973808       -0.12385181365668       -0.49613705947686
C            2.02353871645898       -0.13822471801770       -0.15480304395505
C            3.00740911373533       -0.55373029437008       -1.26561752594488
C            4.41855620204210       -0.42274553230425       -0.76560802552025
C            5.12386648010194        0.74633195223745       -0.96234796465899
C            6.43971896264549        0.84748295839843       -0.54366103564831
C            7.05555358872017       -0.21897427745739        0.08372685943815
O            8.34241800788504       -0.23492725682036        0.52535152240921
C            9.13490161088780        0.90335906275154        0.31149910562646
C            6.33023150379065       -1.40916088138645        0.30688415636113
O            7.01542632574284       -2.40437899882688        0.93321647245503
C            6.37138639690607       -3.63252382634397        1.15008009116424
C            5.02180359191315       -1.49386695228149       -0.11779912737386
C           -0.11541883894217       -1.34211303974497       -0.75484814027794
C           -3.92078566232167        3.12742542683390        0.57124838134508
C           -4.59013620610599        2.78885267801921        1.90119429161915
C           -3.37702270958367        4.54982357826156        0.62949623495715
H           -4.80580279235697        0.93187495447138       -1.37151173961684
H           -6.93749170192680        0.15898566084555       -1.81893944016855
H           -7.22605611074547       -1.31493733411854       -2.77219953507510
H           -5.74095496218547       -0.37062871895131       -3.04006373401416
H           -4.82830169931530       -3.63989193807160        2.48687077897511
H           -5.21744886845768       -4.93218656413545        1.32599159078008
H           -3.55670398495178       -4.30562357510590        1.41713680898250
H           -3.04282833067471       -2.07658132311465        2.09718442369265
H           -1.97702707239001        0.05668540290833        1.66279264336427
H           -3.02647899646408        2.52797377573328       -1.89537718948273
H           -1.62669866052918        3.29408332880026       -1.13148524605211
H           -1.86086877454929        0.31748632236916       -1.69940788038123
H           -1.08094054851960        1.45948000007443       -2.77137693899153
H           -0.77072446599826        1.75382455594406        0.53062687100718
H            0.71934048215189        1.90919077747008       -1.16557485458184
H            2.20642153497241       -0.77328708400549        0.71441747183256
H            2.29733079008344        0.87157249453205        0.14476064874915
H            2.85666265128053        0.08149480881980       -2.14116051074091
H            2.78338460471612       -1.58447045081156       -1.54052701098215
H            4.65794316861447        1.58554111689449       -1.45798473591912
H            6.97410758705845        1.76432294959382       -0.72790402566868
H            8.73126752435565        1.77953988563402        0.82925391692100
H            9.24467149478042        1.12972346849936       -0.75521971487743
H           10.11126796998504        0.65986218077507        0.72737064820792
H            7.11472281713802       -4.26785884919579        1.63000970800067
H            5.50687955551200       -3.52569051072551        1.81341463776952
H            6.05544140148321       -4.09823069260001        0.21024924120682
H            4.45010644554185       -2.39466058498174        0.03995596215207
H           -0.14243024392218       -1.61163238323615       -1.81776875163404
H           -1.14499797383893       -1.24417226365744       -0.39595247771741
H            0.37240038391802       -2.13489968587226       -0.18415349707078
H           -4.67573134422164        3.07375761264212       -0.21926888760792
H           -3.86699574010478        2.84417040443880        2.70350617413579
H           -5.01259215628905        1.78815998171126        1.88351745697680
H           -5.38770101685141        3.49928969715765        2.10098718002529
H           -2.58258264996897        4.61597543450058        1.36652578017742
H           -2.99038571710241        4.87091660320673       -0.33306495188483
H           -4.17797752955750        5.22494113830118        0.92025901166210
H           -0.74770538338551        2.48199910912297        2.77018008597544
