72
 energy: 25.367748202858 xtb: 6.6.1 (8d0f1dd)
N           -1.45935224554974        1.91093849817449        1.99550342328179
C           -2.40622877284190        1.52135045529997        1.26464936989210
C           -3.15213072666398        2.24132117990715        0.12925213274472
C           -3.84965848952698        0.90919298572492       -0.12050713990068
C           -4.82741738611504        0.28953204641075       -0.86741359646763
C           -5.10612552987564       -1.03711587177657       -0.52513460864999
O           -6.05371105710419       -1.80582216311665       -1.13191126426784
C           -6.79589031058661       -1.25529320727593       -2.20246679909734
C           -4.44778946441436       -1.66186581588136        0.57497871344802
O           -4.88919541621168       -2.93569986673238        0.80287728097378
C           -4.37137809589764       -3.66479292446446        1.89418317400199
C           -3.51292823282957       -0.99098198646017        1.35877730143136
C           -3.18456179621288        0.30325138287755        0.96176940741470
C           -2.27952636364567        2.69692333594700       -1.03447512017139
C           -1.54447215540833        1.57138658052088       -1.75534907525590
C           -0.27096753750736        1.05929636390383       -1.03744590591345
N           -0.49798239678334       -0.16216706880638       -0.26721965794322
C            3.04336562290862       -0.13558315958761        0.10633524244264
C            3.34533415617279       -0.55476403708906       -1.27526198262964
C            4.53122332490686       -0.33429223959626       -0.37249844068534
C            5.35447166194648        0.84283414461423       -0.57485918837044
C            6.68114665599322        0.86827929740121       -0.26440511180388
C            7.33669457515367       -0.27019263847042        0.19646339676279
O            8.66852645009089       -0.37237231158078        0.45624026935141
C            9.48358994885899        0.74918304307855        0.25678482341660
C            6.58962539207583       -1.45933741048820        0.41240091083825
O            7.31977189790199       -2.50767100783144        0.88370072543042
C            6.67093188267077       -3.72688163083383        1.12735428199691
C            5.26209775969367       -1.49675672861190        0.11573015388363
C           -0.64598851584693       -1.30221573186940       -1.16811223293243
C           -4.07935823627373        3.37935143817598        0.58912902422891
C           -5.04642922894712        2.91024546588304        1.66425191216440
C           -3.25778723855061        4.56203719454188        1.09451579012301
H           -5.36575767372288        0.77666551022588       -1.66987616227975
H           -7.41909907382390       -0.41553726397930       -1.88397721021534
H           -7.45171010589022       -2.05056248895680       -2.54441426528729
H           -6.15456128903958       -0.95461086498018       -3.03751540800706
H           -4.57601306118135       -3.17319115100202        2.84703899472010
H           -4.83983736942405       -4.64634318718097        1.90580670771174
H           -3.29727730837972       -3.79183763712097        1.75981491971020
H           -3.08452541369158       -1.44423873759605        2.24059392493099
H           -1.43442403764284       -0.08248091474900        0.21549215200871
H           -2.91871255589799        3.17683105316553       -1.77750620423146
H           -1.55682746844170        3.43066979514228       -0.68280289156947
H           -2.24670309295281        0.74695053357721       -1.91727529411628
H           -1.26802289866011        1.95044538901316       -2.74015163744473
H            0.08911951943513        1.85559511387309       -0.38207894038817
H            0.47751009735333        0.86804246871892       -1.80704342271491
H            2.59224317249542       -0.85501259954331        0.78791394572312
H            2.64350979448620        0.86201660721705        0.27684819868404
H            3.23033705478039        0.15796554271758       -2.07252241888613
H            3.16394314684611       -1.57348448566012       -1.56826309808288
H            4.84795601300322        1.73163060888456       -0.91447675262203
H            7.22349525289883        1.78506997275290       -0.40894438587485
H            9.18420072096029        1.59081365931340        0.89320894087961
H            9.48984849739305        1.07238154453429       -0.79070075565707
H           10.48586238050992        0.42110524875058        0.53189130856217
H            7.45649338729596       -4.39233790037592        1.48561699607839
H            5.89307010885384       -3.63353673898655        1.89356465955472
H            6.23840972676614       -4.15014664127111        0.21430447996732
H            4.68796893901926       -2.39195892101983        0.26394282339937
H            0.12481231327362       -1.34387874498690       -1.95819174155663
H           -1.64602204282206       -1.31183714828662       -1.68004022033607
H           -0.56363333562802       -2.21894207091734       -0.58263494331555
H           -4.65617760160091        3.70235660402031       -0.28515435075958
H           -4.51146349045822        2.58240761752088        2.55304366517236
H           -5.65234949324280        2.07848204097530        1.30904342991372
H           -5.69327910464684        3.74081558899808        1.94022225545546
H           -2.54052837881098        4.21272047703096        1.84679917970820
H           -2.73447370893206        5.06817882518694        0.28705494617457
H           -3.92708749092802        5.28750815053617        1.55337577176140
H           -1.17025745338999        1.28111691543201        2.74614648012308
