25
 energy: -42.483144232328 xtb: 6.6.1 (8d0f1dd)
C            3.22474064061389        1.05251677955673        0.18347898407879
N            2.30977085954314        0.07643914967863        0.07804699745222
C            2.56756901605287       -1.27952329246329        0.13143953102623
N            1.35888497788302       -1.98043369786399        0.23188163184080
C            0.36606459195615       -1.09168989424452        0.06589309817491
C            0.89537753200695        0.19631794921287        0.06519559469914
C            0.04851361154454        1.35641730523125        0.03370799226784
O            0.39010315361168        2.51665260096698       -0.00406452939481
N           -1.35724143309811        1.03379343143242       -0.05174675842416
C           -2.31387395952887        2.13917301789447       -0.08329677470091
C           -1.88096966278315       -0.22412668881638       -0.05613093278610
O           -3.07048854083259       -0.45917309691493       -0.07012099403467
N           -0.97520156439033       -1.31862225885201       -0.02475700527863
C           -1.53989124498840       -2.65193723771226       -0.09925146891948
H            4.24766751478733        0.72992656630479        0.37384489192251
H            4.78432493691880        2.18452191996123       -1.26505369941940
H            2.92842316691539        2.03205696258701        0.51848458957305
H            3.51196454039246       -1.72583361628502        0.33593919933703
H           -1.73025242168834        3.05416678280377       -0.06478636359993
H           -2.90757425456805        2.08394023817865       -0.99795898467191
H           -2.98874910071792        2.07819879179083        0.76983252220215
H           -1.28478512021499       -3.22622872789157        0.79226436515144
H           -1.21067407995665       -3.18345368692885       -0.99704672634268
H           -2.62570057788315       -2.54005270306608       -0.13846186063279
H            1.24684941234193       -2.97031164146323        0.09689314426517
