25
 energy: -42.485067101506 xtb: 6.6.1 (8d0f1dd)
C            3.21210249860474        0.92600354746736       -0.13838807602214
N            2.33310375478506       -0.05773563997073       -0.11935099420125
C            2.54870655377213       -1.39807862715450       -0.12401267299253
N            1.33357490575808       -2.07663008741329       -0.13394863736400
C            0.35565477993674       -1.15902036898739       -0.09757998558376
C            0.93858415553597        0.10167212428317       -0.09693832521955
C            0.15587272956131        1.29576624680274       -0.04123485388614
O            0.55364705278610        2.43913745762869       -0.02436936602423
N           -1.23037510807864        1.00600670021633       -0.01151150935370
C           -2.15030738791011        2.13554609168599        0.01219119886016
C           -1.82941166840424       -0.22819293166137       -0.02715076511233
O           -3.03140391651067       -0.36517216698008       -0.01453242716399
N           -0.99043401771767       -1.34565482045882       -0.05543494436158
C           -1.57318689791741       -2.66979694083681       -0.06358967235015
H            3.74399668390494        3.45398655081681        1.38703855491859
H            4.25402675756165        0.69206279205057       -0.07449466121615
H            2.86784499306550        1.94255323586070       -0.16517070225846
H            3.49451844282508       -1.87765272263187       -0.24079569114188
H           -1.56183775235718        3.04799763121095        0.05942864505678
H           -2.76535465518021        2.13203788143362       -0.88764586306128
H           -2.80459960005709        2.06158694185050        0.87981233833892
H           -1.27056923778008       -3.23201147347400        0.82196000605046
H           -1.27768725021282       -3.21343708094869       -0.96247891678836
H           -2.65598142440101       -2.54612903264524       -0.05487830673964
H            1.24246820265948       -3.07847729970203       -0.12266298875923
