72
 energy: -99.270870558447 gnorm: 0.001729492654 xtb: 6.6.1 (8d0f1dd)
N           -2.37686210938333        2.09382938540876        2.37844124083460
C           -2.63983853711411        2.59113020244462        1.30172829545221
C           -3.07357574091866        2.91587082251105        0.11470280380832
C           -3.58209562247705       -0.91588359916954        1.82329013630407
C           -4.17179428593992       -0.55598252717733        0.53692060893977
C           -4.38161889820475       -1.68768311755485       -0.21319541704833
O           -4.88759603063853       -1.82464139240134       -1.45508117028927
C           -5.45212506618868       -0.67351548753914       -2.04072061058899
C           -3.76501042194334       -2.80858826327336        0.45914496882224
O           -3.66802948667640       -4.01582832421619       -0.08752871539720
C           -2.97621002740329       -4.97799161447061        0.68077082167148
C           -3.38361364793568       -2.39649099729438        1.73974205864016
C           -2.20284465803231       -1.60013745965540        2.04703724914438
C           -2.27866163652037        2.67220731663552       -1.14784363474285
C           -1.70111649065924        1.25318881609414       -1.24408687179595
C           -0.40856506604687        1.12405567663021       -0.44679756807740
N            0.23097391633448       -0.17291581526341       -0.50877500218460
C            1.62463166337449       -0.21026394700296       -0.12945598335069
C            2.54774980736478       -0.14326199962590       -1.36222507958601
C            3.98736274853933       -0.06695988066776       -0.93750360276908
C            4.69514690067624        1.11924936443250       -1.02909161984326
C            6.02030410669788        1.18952930038724       -0.62582947249257
C            6.66119071845209        0.07379410141237       -0.10842184341807
O            7.93869141656662        0.02575432110470        0.31297284202708
C            8.73810794820189        1.18198444461429        0.21516466412381
C            5.93913258137295       -1.14707139535039        0.00080881478548
O            6.63476873369943       -2.17848881002460        0.52114330134175
C            6.00704024384762       -3.42937369259821        0.66736040776235
C            4.61986984077400       -1.19562841844978       -0.41812106324243
C           -0.38185131244468       -1.28563834611507       -0.87644392800397
C           -4.38977068425851        3.66106458342687       -0.02284501541776
C           -5.26927417499241        3.52229807895482        1.21673681068417
C           -4.11494743580017        5.13907971454367       -0.31568584333871
H           -4.56939693156421        0.42136925862682        0.33540777008546
H           -6.27564377602194       -0.28592669259751       -1.43437315684328
H           -5.83034079084071       -0.98462345269071       -3.01217058192397
H           -4.70116777923114        0.11282774783138       -2.17296101272444
H           -3.31668724646301       -4.94744778619094        1.72056848442186
H           -3.19244212980693       -5.94754146002955        0.23771208794131
H           -1.89832147555605       -4.79334153617388        0.65943679966921
H           -3.93674393915231       -0.39563235021251        2.69905071396689
H           -1.86356697942308       -1.51813375759769        3.06863951650857
H           -2.94946446036883        2.83368021121636       -1.99299206313463
H           -1.46877502071326        3.40336742781185       -1.23373550314561
H           -2.44607675984459        0.55289894849217       -0.86122648149230
H           -1.49792909111965        1.01949543069977       -2.29159674227608
H           -0.61657093434940        1.34979117525853        0.60667359342763
H            0.31250965601484        1.86328896904310       -0.81121104800609
H            1.82783406879065       -1.13205953173942        0.42016945255434
H            1.83734774747983        0.63489675134717        0.52799245249501
H            2.29348362196625        0.73535647213246       -1.95660806938978
H            2.38031578613084       -1.03010125282535       -1.97659931086660
H            4.22225128826021        2.00232804866282       -1.43102324850755
H            6.54766131227166        2.12426598894414       -0.72191562736729
H            8.33551094370635        2.00016798644511        0.82003997196838
H            8.84061110286613        1.51077412052808       -0.82333269460213
H            9.71443259370404        0.89505512999862        0.60087230408898
H            6.75944896203894       -4.08459979979116        1.10194915172720
H            5.14690488005659       -3.37003549450179        1.34235860306552
H            5.68887323193130       -3.83507795484443       -0.29804826843245
H            4.07087337155132       -2.12227436120423       -0.35796058934802
H           -1.39105875077911       -1.27595357835960       -1.23260742365316
H           -1.40304606833376       -1.55390761039879        1.31107284796804
H            0.16774261165712       -2.20753317859839       -0.86558543523568
H           -4.92222529579467        3.23196102185057       -0.88109488530385
H           -4.79760557681389        3.99029163033982        2.07769586303323
H           -5.45206052867734        2.47659371299223        1.45420275996149
H           -6.22618468483833        4.00913242323386        1.04693693824688
H           -3.58471335726964        5.59592955778685        0.51695482063813
H           -3.51628524039082        5.25788950917035       -1.21533049904440
H           -5.05347003251860        5.66890906629796       -0.45617872966221
H           -1.86907802389605        2.58136769085340        3.10376949908789
