25
 energy: 127.561035791371 xtb: 6.6.1 (8d0f1dd)
C            2.85383944966560        1.19849325096041        0.11049290692930
N            2.12431923906519       -0.05046497405500        0.08224868863807
C            2.55469114875373       -1.29163602939509       -0.01874412179226
N            1.50615387718315       -2.13574317116844       -0.03297676077504
C            0.30301239100190       -1.39502012196113        0.05571802734920
C            0.75949119862191       -0.05153674360103        0.14869081931584
C           -0.07349517425506        1.03891515310097        0.45770778481049
O            0.24809744746592        2.19776219215539        0.63813497987586
N           -1.37631383656570        0.50157064505403        0.60817030319021
C           -2.33316634541577        3.18189672896764       -0.25594972887698
C           -2.16303116926220        0.29508440766744       -0.33009427765566
O           -2.75029996149835        1.10742761801732       -1.00436812103870
N           -0.90837311976536       -1.77847309139030        0.03669010724177
C           -1.09907504850965       -3.16957346207301        0.03722907382155
H            3.79402949150233        1.03647844177950        0.61138294174537
H            3.12832125403803        1.57067448334016       -0.88298491904829
H            2.16444690119271        1.92971214243753        0.55880996794698
H            3.55892658287678       -1.62378416978518       -0.11153324439518
H           -1.61340331559574        2.89563778517115       -1.01105367132728
H           -3.36287324239692        3.20233743919791       -0.37820738197090
H           -1.87810192014282        3.57900538170856        0.62263910429675
H           -0.49611570837479       -3.52381931948811        0.87459159060370
H           -0.66027420525077       -3.53041550483384       -0.89349774279699
H           -2.15569300353684       -3.43372045386523        0.09669312142073
H            1.56310451917577       -3.13150189587331       -0.09128134725001
