25
 energy: -1.113357765074 xtb: 6.6.1 (8d0f1dd)
C            3.18726249712678        1.19991754130064        0.09260113851011
N            2.27444474786035        0.08948454093598        0.05061128428105
C            2.58135261703262       -1.26643311063349        0.02752169292672
N            1.38104825482037       -1.96304892507252        0.00210620420258
C            0.34585570274877       -1.09163424478977        0.01008261914094
C            0.87543256896429        0.18973792177495        0.03920046844466
C            0.05379402469542        1.32619120610751        0.03853748977043
O            0.44700240628672        2.49732782225311        0.09642924319353
N           -1.36141690934867        1.04745602227463       -0.03081257563162
C           -2.17281848344161        2.26701463807997       -0.06800350405656
C           -1.93184252170121       -0.18231574085974       -0.16702806319327
O           -3.11784122876410       -0.32535260683828       -0.36909037821249
N           -1.01166165032455       -1.31538615491868       -0.03157354609314
C           -1.43518267272857       -2.69880807074301       -0.05422084945937
H            3.74997830340718        1.23471497508463        1.02643140471712
H            3.91378096399473        1.16072956465021       -0.72561365769440
H            2.59163248881084        2.10807517578982        0.00356207464109
H            3.56031925129365       -1.70096958551458        0.03035178852436
H           -1.44756560548748        3.06646114064040       -0.12715089333313
H           -2.87292367487249        2.28432446555421       -0.90768040822134
H           -2.77907332941859        2.35469169835594        0.84324697956602
H           -1.06909490793198       -3.23532210886916        0.82748096241306
H           -1.06702478044832       -3.21205241778767       -0.94809775454500
H           -2.52134428383425       -2.70397675362099       -0.05717357048930
H            1.31230145210653       -2.96734680949109       -0.01932672955768
