25
 energy: 117.158012573087 xtb: 6.6.1 (8d0f1dd)
C            2.87146157186461        1.20765284858218        0.11677208531887
N            2.11016578342946       -0.03091035479002        0.08062322259065
C            2.53192015249339       -1.27733948790888       -0.03563222276804
N            1.47530021770855       -2.11753747938061       -0.04078246396964
C            0.28074608225183       -1.36320181717541        0.05336810926701
C            0.74015192705767       -0.02514150411156        0.15858509896445
C           -0.07758623506235        1.07879037809113        0.49404001936602
O            0.28066421694275        2.21927626198522        0.71687991919189
N           -1.39535063305100        0.60820490361479        0.61483255634285
C           -2.26000410436069        3.14496071396122       -0.22700868003220
C           -2.16183186265064        0.33048298953750       -0.32938261847465
O           -2.76469208682957        1.00288157711007       -1.10562414183609
N           -0.94016975147868       -1.73396230850002        0.02985753175077
C           -1.12934523957843       -3.12708536176624        0.02021803160960
H            3.78528762192955        1.05386090315656        0.66429499316884
H            3.20823337684581        1.55251588053230       -0.86131056299841
H            2.17546895095465        1.96059022640537        0.50881944671156
H            3.53166964989794       -1.63890072957584       -0.11486759110303
H           -1.51060613313338        2.92117966589852       -0.98793734842926
H           -3.28328969603103        3.13669794638936       -0.41177512626350
H           -1.90977865356849        3.47671829012204        0.71968477654416
H           -0.54155298131884       -3.49501814787888        0.86024225238548
H           -0.68900506513323       -3.49336775672712       -0.90731055475367
H           -2.19270979567350       -3.37918579216716        0.07569889899453
H            1.52723213274038       -3.11593216250978       -0.09288883461317
