25
 energy: 15.252946578013 xtb: 6.6.1 (8d0f1dd)
C            3.11546281944113        1.20657910888529        0.08936338556063
N            2.23460783631808        0.05732401016955        0.05952818208785
C            2.54990360123806       -1.30285921378010        0.01725385575000
N            1.33987915563217       -2.00029520939619       -0.00495455407029
C            0.29956957301927       -1.12902437687352        0.02290132942944
C            0.83436041691378        0.14724917954395        0.07116133356984
C            0.02940108117413        1.29242384088137        0.13265649628692
O            0.48304004823816        2.44036901938890        0.22151637925494
N           -1.38659208538343        1.10828849261055        0.07935262036416
C           -2.09246657765482        2.41138558495174       -0.07694946806145
C           -1.94142117107623       -0.07210129678936       -0.27894557911859
O           -3.08423760936913       -0.13300908463890       -0.66410236697971
N           -1.06153240492105       -1.33684934907853       -0.02491786115433
C           -1.39664960421780       -2.75189647048908       -0.04944756303833
H            3.73502707738919        1.20579491072717        0.97081373213874
H            3.79212530695265        1.26441178422749       -0.77222050537089
H            2.48472756430653        2.09881999686176        0.09980940718415
H            3.52766385643132       -1.75138744144209        0.00169047865345
H           -1.25712006589374        3.07429233290043       -0.26134743686357
H           -2.87585554452809        2.46733016981630       -0.84686770917912
H           -2.63140159732780        2.62891086976248        0.86277294722071
H           -0.97192920030841       -3.26664157155007        0.82402259957909
H           -0.99404655711738       -3.24551430275105       -0.94175157157621
H           -2.47767033823830       -2.84839317906766       -0.03745667121832
H            1.26406539947819       -3.00618246358631       -0.04305108010814
