25
 energy: 100.570342418936 xtb: 6.6.1 (8d0f1dd)
C            2.97760832350379        1.14611886883547        0.06590008217272
N            2.22613063474321       -0.07715251497805        0.05828974739646
C            2.74100392169007       -1.31861828659884        0.00664759172136
N            1.72432872039437       -2.22893730992592        0.01617510265745
C            0.54034871720253       -1.54200648842848        0.07505095294525
C            0.85101914169628       -0.18344538572298        0.10098631228609
C           -0.21860819906711        0.79039667190678        0.12998484865938
O           -0.05813551813752        2.03282949246813        0.11380287471886
N           -1.43700479826418        0.22214327104061        0.16969147290473
C           -3.06624976768741        3.72397388333967       -0.26291784693053
C           -1.73631480781794       -1.04742443801550        0.16198978918311
O           -2.36133246906726        2.75835029813333       -0.76749626072619
N           -0.71596800624100       -2.00191229821956        0.10017335966508
C           -1.04561093563610       -3.40937086831702        0.05623217366990
H            3.66723324882978        1.15945330691198        0.91193020759863
H            3.55189619892841        1.24919683195335       -0.85725818340643
H            2.28417477743849        1.98209253620436        0.14972342733218
H            3.77700988502707       -1.56156480996788       -0.03979006466897
H           -1.44523358258183        2.59436415202928       -0.32787000414770
H           -4.04138265931885        3.88377870030341       -0.69304687357469
H           -2.71649532427033        4.34964613759010        0.54285140776575
H           -0.58112774098226       -3.93665119586574        0.89328202655988
H           -0.71506973698243       -3.85683932216977       -0.88505095839667
H           -2.12829716049333       -3.51222710444142        0.12958137165122
H            1.83829144206587       -3.22716533932119       -0.02182864484267
