25
 energy: 107.768708872653 xtb: 6.6.1 (8d0f1dd)
C            2.95895992850803        1.15282912470081        0.08164270873623
N            2.22518057958430       -0.08487443303767        0.05271978399273
C            2.73785922088413       -1.32195202989585        0.00268271265104
N            1.72183209117675       -2.22904951585687        0.00815903730032
C            0.52440734352631       -1.54789320221989        0.07179636551995
C            0.86117849105732       -0.19465980033280        0.09724956074323
C           -0.18867096592853        0.78540297660384        0.19376276178478
O           -0.03435434044650        2.02198338687682        0.13792498738929
N           -1.40331735810023        0.23028015416649        0.29506429079827
C           -2.99417281243005        3.66869461243518       -0.25866181944815
C           -1.81030591397552       -0.97487818022924        0.04081528916033
O           -2.41701437359377        2.59480513192418       -0.70547180846316
N           -0.72419994680512       -2.00029025108310        0.07479652861416
C           -1.04888248105531       -3.40717806224548        0.05620575576421
H            3.73365534116647        1.11669745317657        0.85184967808809
H            3.39307475701677        1.34460302291864       -0.89992597319122
H            2.27384762911444        1.97622783367674        0.31102907934364
H            3.76621405851835       -1.55901124571919       -0.04797574743512
H           -1.51004005595083        2.61023200258763       -0.33344315541488
H           -3.95655109009940        3.80627074183945       -0.65102376040749
H           -2.51727948985004        4.28171659478367        0.49756314829464
H           -0.52652144674077       -3.90833920617094        0.88485811932552
H           -0.74059273086130       -3.82796998435655       -0.90087315221698
H           -2.15004545843787       -3.49989342102113        0.19508880780414
H            1.81239227967324       -3.22720404884638       -0.04091344038460
