25
 energy: 63.869958760308 xtb: 6.6.1 (8d0f1dd)
C            3.00894589384341        1.21429822037037        0.09194538996526
N            2.16925715196190        0.01751301329816        0.06794865917041
C            2.50021495739676       -1.31069545742663       -0.00354462288734
N            1.33718009253917       -2.04969503249656       -0.05377361327379
C            0.24411942321517       -1.21207393422250        0.03817384331728
C            0.76787285938881        0.09002726761432        0.11894314301801
C           -0.00082529803423        1.25138726284978        0.30689780047784
O            0.46104316367558        2.39239836439349        0.45669503935528
N           -1.42513136490537        1.17865720105126        0.29535088264588
C           -2.00211979392608        2.64238093819275       -0.09594127990554
C           -2.06535617548246        0.20892193750582       -0.26406578742627
O           -2.96631626015668        0.24678078164906       -1.01682241667711
N           -1.05705348733693       -1.48269622747402        0.03656781512519
C           -1.30696260600301       -2.89053784442229       -0.02754727943944
H            3.74242233561602        1.15244928783652        0.86797429381679
H            3.58375080154076        1.39975179987811       -0.82681206360041
H            2.33408180610917        2.06875385232095        0.24974968278748
H            3.47096383282171       -1.76829945521684       -0.06166953514995
H           -1.11507169371098        3.07993153265105       -0.55695168446682
H           -2.89586606365050        2.72879654069285       -0.72615993161472
H           -2.35542271688958        3.02625710651234        0.86541104598600
H           -0.81357085609217       -3.35745195437610        0.83348434447291
H           -0.87430506297172       -3.32538391558243       -0.93436811919460
H           -2.38510683410699       -3.05862902042223       -0.00023290990040
H            1.33191882244748       -3.05846087254957       -0.08308166646575
