25
 energy: 43.241769624385 xtb: 6.6.1 (8d0f1dd)
C            3.04426072414067        1.21314250156191        0.08581790035866
N            2.19631621010349        0.02985387228202        0.06633526538364
C            2.51713760520290       -1.31954228882131        0.00649439366661
N            1.32641006302826       -2.03398684928554       -0.03039839338750
C            0.26395394868048       -1.17580263892462        0.03358467879462
C            0.79593454894224        0.10859986429640        0.10307246973943
C            0.01157248434867        1.26365543063108        0.24579427381692
O            0.47327292998303        2.40807989096962        0.37381515974160
N           -1.40932178503814        1.15695434073053        0.22553820456373
C           -2.01969875979138        2.55649533167508       -0.08291469202588
C           -1.97863807447898        0.08518075368543       -0.29090893946819
O           -3.00247684899049        0.09967045798611       -0.89297704307770
N           -1.08401613738740       -1.39575526502472        0.00751274975121
C           -1.34805790548661       -2.82244321522348       -0.03720498938021
H            3.73215536317922        1.17922986180540        0.90206792801086
H            3.65758986054214        1.35636652212397       -0.81529731462604
H            2.38364819198916        2.08216936369996        0.19372228915675
H            3.48869032298061       -1.77523778931972       -0.03803190886260
H           -1.14386630418291        3.08962814181584       -0.44636751075161
H           -2.87568276722276        2.63960848177390       -0.76683689701133
H           -2.45483368618413        2.88985496663110        0.87247529179817
H           -0.87169817930139       -3.30862886689099        0.82713629987879
H           -0.91842918774977       -3.28597511123821       -0.93434906608870
H           -2.42226269500294       -2.98966033389356       -0.01348466372573
H            1.29601144354757       -3.04420641661920       -0.07580590301544
