25
 energy: 164.003153377998 xtb: 6.6.1 (8d0f1dd)
C            2.89733927513023        1.15260481607196        0.11047382839764
N            2.15940653725659       -0.06648275506894        0.09054480786126
C            2.62501964714335       -1.28922117398786        0.00000259876928
N            1.59220572402297       -2.16152793381130       -0.01924551249217
C            0.38853211525548       -1.46535065762694        0.06133189758677
C            0.79863430296972       -0.11374927008821        0.14560707836187
C           -0.12420393200353        0.93684667361070        0.36986151261801
O            0.14143258041151        2.13988814193037        0.42245667691892
N           -1.37237996937828        0.36195752494379        0.47128799699334
C           -2.66559210177316        3.32759968533767       -0.27492457797476
C           -2.02563285343693       -0.50792219259080       -0.10936067854382
O           -2.39362945404093        2.02523570230327       -0.71886633500420
N           -0.83531600414051       -1.88943397871875        0.02340649241143
C           -1.06540349284681       -3.28343260898918        0.04981175608428
H            3.83245799352521        1.02347681377318        0.66449353855309
H            3.04375777615240        1.48018963242975       -0.91090848824674
H            2.29912612435948        1.90654248966465        0.60553400009938
H            3.63949516345122       -1.54870817366158       -0.09854826658829
H           -1.57323193605363        2.49726365610142       -0.82921991920664
H           -3.69334622267219        3.44473692532985       -0.38680789022964
H           -1.94439089088805        3.86692613268287        0.34229860402968
H           -0.49775669437669       -3.67138286108763        0.89049966843177
H           -0.70150736201525       -3.65630044091582       -0.89787062473683
H           -2.09737189575234       -3.58665471613117        0.15170164486098
H            1.68217287800360       -3.15020772020775       -0.08368007925339
