25
 energy: 28.084711463843 xtb: 6.6.1 (8d0f1dd)
C            3.07971696598807        1.20849842025989        0.08725364352241
N            2.21734254497229        0.03946287804870        0.06191381116307
C            2.53362471843400       -1.31804205246754        0.01053410784737
N            1.32933444021167       -2.02164239710726       -0.01494724014726
C            0.28140029520120       -1.15317100558735        0.02867577665282
C            0.81704408506058        0.12460775125292        0.08650857287164
C            0.01951348254733        1.27298627925099        0.18791627237300
O            0.47746594788928        2.41799767211524        0.29417974153432
N           -1.39767836845314        1.13310047332478        0.15187685145714
C           -2.04864430830204        2.48370962604506       -0.08113557210456
C           -1.95041037017304        0.00166137788525       -0.29548925608048
O           -3.04458924113947       -0.02414129061969       -0.78951666373818
N           -1.07507237771473       -1.36062884888448       -0.01053439407728
C           -1.37335241060598       -2.78444905298297       -0.04413084736368
H            3.73237494556410        1.19161100103643        0.93776630152656
H            3.72627363914374        1.31190901092063       -0.79423499861737
H            2.43317504662692        2.09004182744931        0.14764977478752
H            3.50862913497741       -1.77186458931328       -0.01872054746113
H           -1.17807269086164        3.08053129615521       -0.34096138598875
H           -2.87031247089033        2.55593877431692       -0.81212332587979
H           -2.54383565485204        2.76121102019644        0.86763936960355
H           -0.92172966343813       -3.28617450971342        0.82465344409445
H           -0.95534725411008       -3.26358331758850       -0.93811659110551
H           -2.45075097309135       -2.91969039638430       -0.02650499334102
H            1.27492293424865       -3.02957956711797       -0.05976681682949
