25
 energy: 90.849908188098 xtb: 6.6.1 (8d0f1dd)
C            2.97839312822604        1.21116283320382        0.09527886170650
N            2.15402053311445       -0.00472298607019        0.06546326214741
C            2.49238390502399       -1.30321995573400       -0.00808952723266
N            1.36461296527823       -2.07199125150381       -0.04252570378845
C            0.23484809844507       -1.24627436904966        0.03682634164097
C            0.76604762002332        0.05996721920359        0.11917778828020
C           -0.01476497738453        1.21870007304707        0.37131051810360
O            0.42523753057821        2.35073629151200        0.53389464153994
N           -1.38525187559896        1.01798584092363        0.45680260566349
C           -2.07703642845974        2.87991005086543       -0.15405087896641
C           -2.08457408457573        0.32595594441547       -0.27543739426520
O           -2.89695305987150        0.40872237655280       -1.09009104507769
N           -1.02609590566567       -1.55355386147764        0.00934616317975
C           -1.26523814723633       -2.95204050974221       -0.01585882278364
H            3.75500506795998        1.12790951578387        0.82868217971088
H            3.51037196046134        1.43928569336926       -0.83725060815830
H            2.29561382598108        2.05173442285189        0.29918708441169
H            3.46420426040913       -1.75171681744924       -0.08710062273768
H           -1.15078526638835        3.05440611905112       -0.67919541246315
H           -2.98399927359595        2.87278479534764       -0.69591385946683
H           -2.26485239305598        3.12631800282427        0.86573496166977
H           -0.75757767910959       -3.39626480671564        0.84247135524385
H           -0.83323362009713       -3.36382133916027       -0.92895546060590
H           -2.34450888120652       -3.12861434280997        0.01362508787446
H            1.36918083814148       -3.07806670700245       -0.09491345411643
