25
 energy: 116.925220584923 xtb: 6.6.1 (8d0f1dd)
C            2.94758385552432        1.16570662368446        0.07584453577624
N            2.22335356145731       -0.07357448016813        0.05543413656013
C            2.72570651368483       -1.30807170696306        0.00185619752361
N            1.71390570411958       -2.21537311069717       -0.00203610300351
C            0.51560392084761       -1.53713010445765        0.06833899421128
C            0.85814107628750       -0.18048588970626        0.09505581455018
C           -0.17459369350491        0.80802125692944        0.21922963191022
O           -0.00824324286042        2.03772972620297        0.19856446750246
N           -1.38839522870765        0.22891029633543        0.32608958641990
C           -2.91625437438786        3.65226597775070       -0.27424645346696
C           -1.84389989941972       -0.92088954317742        0.00414529697228
O           -2.40459616163461        2.49288058988863       -0.62582088135815
N           -0.72878956453714       -1.98207938292803        0.06172915423894
C           -1.02532254281096       -3.38429281104335        0.05795660373561
H            3.75867982292624        1.09797893949736        0.81629879236913
H            3.33409966476232        1.37732790061249       -0.93144442881569
H            2.27496838364887        1.98927003523774        0.36762013666941
H            3.74835747633583       -1.54925031170281       -0.05815365818504
H           -1.51551701782975        2.65012268235755       -0.34185240360251
H           -3.91651503103447        3.73648563758840       -0.57668530494510
H           -2.39149327557295        4.24361938258768        0.46862936185690
H           -0.50134491661806       -3.86280187551237        0.89195624159405
H           -0.73161292700083       -3.79458978994743       -0.90298485692314
H           -2.11108880998474       -3.51982929464265        0.21398367961969
H            1.78634228198731       -3.21631269094602       -0.05873915559184
