25
 energy: 95.985206720246 xtb: 6.6.1 (8d0f1dd)
C            2.94788059690651        1.21587286812544        0.09991786065972
N            2.13565723868016       -0.00555926004730        0.07024111119038
C            2.48891235083428       -1.28906072747618       -0.01272603699390
N            1.38603783414943       -2.08124287065331       -0.04736506363831
C            0.24029046705775       -1.27028621567270        0.03338023928112
C            0.75432419924270        0.04619939609295        0.13310709826772
C           -0.02791515483481        1.19772171540067        0.42367827576043
O            0.39557654228379        2.32890723553066        0.61075791316509
N           -1.37821533271875        0.91918926830750        0.52790859107743
C           -2.11650490575113        2.95867606847778       -0.17574201775180
C           -2.04230760196534        0.33800862943507       -0.31707563382619
O           -2.79651349467106        0.54955399755005       -1.17042999666458
N           -1.00962466784056       -1.59636553372505        0.00432383581663
C           -1.22941488534924       -2.99487613081282       -0.01089405222280
H            3.76271996159723        1.10938430913992        0.78751018132434
H            3.43648550198393        1.47695283226364       -0.84775839797517
H            2.25549679811545        2.03764074908967        0.35032171919573
H            3.46542523860917       -1.72244315648312       -0.10546149098567
H           -1.20730385042339        3.02210458845784       -0.77799840105668
H           -3.05925429546093        2.96054374031937       -0.63899449807701
H           -2.17253928455943        3.22791258461215        0.85042590544143
H           -0.70216921091343       -3.41419577312485        0.84656595418256
H           -0.79284424280647       -3.39459506599437       -0.92553735980790
H           -2.30657457956421       -3.19052050788577        0.02757895160986
H            1.40682823127519       -3.08617821417082       -0.09855560921260
