25
 energy: 142.640882157139 xtb: 6.6.1 (8d0f1dd)
C            2.91923121022809        1.16752148481876        0.10260300624062
N            2.18973552143030       -0.06028634156757        0.07505503162497
C            2.67869599346686       -1.28330617065030        0.00433375059687
N            1.66048302823985       -2.18127238885485       -0.01235870580292
C            0.45498583215293       -1.50704720620880        0.05586564038329
C            0.82213421949034       -0.15262413171806        0.11037391719668
C           -0.15428405466626        0.85466847479946        0.31497387167107
O            0.06392970894860        2.07577878205599        0.31911655296057
N           -1.36367713539503        0.24647056496184        0.43106962875547
C           -2.76870040209879        3.51648919678001       -0.27999725201000
C           -1.93518349468084       -0.74721010789193       -0.05354745250982
O           -2.37494349837488        2.24889095675433       -0.60828225377312
N           -0.77495593860980       -1.95571710197110        0.03207654477979
C           -1.01648923686027       -3.34835180496240        0.06322282030389
H            3.80440600980808        1.06067664371635        0.75026042523514
H            3.18774735404438        1.43543169290731       -0.93182715459320
H            2.29133706009443        1.97092138316910        0.50039095774593
H            3.69809452683567       -1.51809712378427       -0.07310251505341
H           -1.51327500183234        2.59313641793496       -0.52155884117535
H           -3.79920728950322        3.59004257017467       -0.47451058645368
H           -2.14035124870954        4.10164321271805        0.40350820666517
H           -0.46901510762692       -3.77045570322573        0.90468565089387
H           -0.72467099095783       -3.73267915457328       -0.90395378518961
H           -2.05279522444982       -3.61807229640941        0.23458597228166
H            1.74601857921470       -3.17478825306878       -0.07412493972495
