  25
        -42.17533883
 C          3.1652892372        1.1091675510        0.3455215499
 N          2.3150619560        0.1229903037        0.1825434641
 C          2.5127318502       -1.0778882983       -0.4039919490
 N          1.3469566862       -1.7892926700       -0.4331266673
 C          0.3623608551       -1.1042475897        0.1615408814
 C          0.9284339276        0.1829895594        0.6272602761
 C          0.0923363876        1.3350606989       -0.0173017325
 O          0.5986478737        2.3446230910       -0.4159410914
 N         -1.2418345103        1.0508546403       -0.0204472509
 C         -2.1733816025        2.1428194154       -0.3005490811
 C         -1.8391543113       -0.1996079583        0.1599585077
 O         -3.0237155993       -0.3425162413        0.2652378537
 N         -0.9675516276       -1.3038592242        0.1112980187
 C         -1.5362381835       -2.6204799467       -0.1196386624
 H          0.8575635798        0.3622266066        1.7084043134
 H          4.1652607884        1.0100245846       -0.0334617244
 H          2.8460676229        2.0179896689        0.8151039190
 H          3.4433470680       -1.4231657631       -0.7996385587
 H         -1.6371145178        3.0840434201       -0.2185973505
 H         -2.5856330542        2.0409338013       -1.3036005518
 H         -2.9880279209        2.1012191390        0.4207111581
 H         -1.0694254701       -3.3495952495        0.5403017267
 H         -1.4104298339       -2.9207620825       -1.1613905000
 H         -2.6011555536       -2.5605279841        0.1012507778
 H          1.2655496918       -2.7044125082       -0.8528314137
