  25
        -42.22006907
 C          3.2841865928        1.4010955426       -0.0348804104
 N          2.4795354111        0.2064170954       -0.0026558853
 C          2.9049862477       -1.0462459638        0.0115972101
 N          1.8637210608       -1.8952600335        0.0221627730
 C          0.7113715461       -1.1557556909        0.0123735591
 C          1.1081590367        0.1760173252       -0.0031493577
 C          0.1180518246        1.2173525639        0.0060027401
 O          0.3228962704        2.4062235594        0.0242061381
 N         -1.2007011308        0.6834716223       -0.0070889636
 C         -2.2368104665        1.7116459473       -0.0124382728
 C         -1.4824758925       -0.6610752421        0.0021767953
 O         -2.6642311850       -1.2045895531        0.0056462735
 N         -0.5423027731       -1.5853289441        0.0146722895
 C         -3.9770302135       -0.6563503848       -0.0319170033
 H          4.0061184348        1.3967196268        0.7812214830
 H          3.8234728467        1.4692520537       -0.9804271868
 H          2.6273287396        2.2648505755        0.0630440229
 H          3.9377734132       -1.3411943139        0.0145809289
 H         -1.7318622716        2.6685671328       -0.1448533826
 H         -2.9257725769        1.5668924030       -0.8378326198
 H         -2.7595980415        1.7368411695        0.9412250212
 H         -4.6208664241       -1.5188603155        0.1461957500
 H         -4.2096894184       -0.2494936654       -1.0168997577
 H         -4.1576848559        0.0812020958        0.7461387039
 H          1.9124381707       -2.9048910306        0.0358965914
