25
 energy: 0.475315625535 xtb: 6.6.1 (8d0f1dd)
C            3.15350111748552        1.32098802528644        0.09462166444278
N            2.38124934664159        0.07329183283400        0.04440709126952
C            2.64485535207452       -1.30725291139521        0.04340765951333
N            1.43692378044002       -2.00566388666073        0.01763247469115
C            0.42313609824890       -1.12605380440176       -0.00768930449274
C            0.97924920113359        0.13920673750616        0.00288724082294
C            0.16788928216478        1.27302500320626       -0.05771657164645
O            0.55377486983074        2.43337197004337       -0.18394938813818
N           -1.23649251331419        0.98799321812557       -0.03434441811095
C           -2.13391249122382        2.12708358098739       -0.04078146899341
C           -1.80857806890240       -0.24047489211229       -0.05229369876495
O           -3.00879284918160       -0.42510478784505       -0.07431870948561
N           -0.92981636893085       -1.34244308100972       -0.04451784442388
C           -1.53436508166378       -2.65216565538080       -0.06611582479782
H            3.68849411874041        1.48394838103716        1.04346831957436
H            3.92315640616953        1.37947139183101       -0.69505305179541
H            2.44286814385917        2.14354438796682       -0.02082818582402
H            3.59131892573896       -1.79069039199781        0.05115082292720
H           -1.55423951708080        3.04039063398737       -0.02768846193353
H           -2.72779435657164        2.13213377392174       -0.94410922666734
H           -2.74748580476248        2.11978005595166        0.85126116442991
H           -1.27857100842254       -3.21929631424685        0.83057958101450
H           -1.25042094045899       -3.21079447565862       -0.95961108093510
H           -2.61275065683148       -2.48288205664945       -0.08714233348959
H            1.30201393571299       -3.00604524068021        0.01434456599795
