25
 energy: 37.191938294065 xtb: 6.6.1 (8d0f1dd)
C            3.18404495192231        2.97034837180579        0.41786744495622
N            2.38846770336842       -0.57917907934506       -0.27449631962443
C            2.47519596029640       -1.83610746845397        0.00387777073717
N            1.24134403519738       -2.45761295973900        0.07927747943759
C            0.32838511844107       -1.47798577192322       -0.14256518496014
C            1.04895208925703       -0.32203992752804       -0.36158795615974
C            0.35953499885028        0.92174185790557       -0.52902886144504
O            0.82892811841432        1.97927042903802       -0.83268380329187
N           -0.99438803345001        0.84441731368366       -0.16277374795958
C           -1.64783489585227        2.10310596212472        0.17134148714499
C           -1.72335280710464       -0.29921811109666        0.00366064549267
O           -2.91435870048369       -0.29286867400089        0.22010742873078
N           -1.02536729992711       -1.50151568365253       -0.10899526236433
C           -1.79203558134030       -2.71329735233497       -0.18138413184689
H            3.99287027739364        3.07381781290957        1.08655238834049
H            3.21674054546818        3.23665989455592       -0.60191020009172
H            2.24352875112684        2.63498652894129        0.77855989927189
H            3.39155044182721       -2.35762932918116        0.18869594277722
H           -0.94791008426327        2.89195401592249       -0.04796702708011
H           -2.54087459804653        2.25880127857579       -0.42132395966356
H           -1.86258232873139        2.10096846751088        1.23374154390894
H           -1.85307367854352       -3.22639924852235        0.77177765811832
H           -1.38365826480941       -3.34986420338441       -0.96261988224266
H           -2.81066979502819       -2.41588010810203       -0.41540738773803
H            1.05968814063073       -3.43175349784958        0.23325962462515
