  25
        -42.08843218
 C          3.2207934226        1.1307008622        0.0191097257
 N          2.2665578280        0.0568900784       -0.0021144507
 C          2.5560311261       -1.2469374672       -0.0135243047
 N          1.3886743986       -1.9306641540       -0.0105742843
 C          0.3446964276       -1.0543913410        0.0018500079
 C          0.9014431689        0.2187523688        0.0089611353
 C          0.0749619674        1.4046932880       -0.0002042936
 O          0.4684196451        2.5473844965       -0.0129415730
 N         -1.2834489230        1.0791877385        0.0010197158
 C         -2.2356672190        2.1782963591       -0.0064475962
 C         -1.8544884760       -0.1824777198        0.0039190305
 O         -3.0445212041       -0.3436094915        0.0044841142
 N         -0.9793529900       -1.2841905188        0.0039447744
 C         -1.5316278683       -2.6218626431        0.0030556328
 H          3.6625214665        1.2213325561        1.0137186141
 H          4.0193484841        0.9284310955       -0.6931932786
 H          2.7197391301        2.0650737375       -0.2303810633
 H          4.6959441279       -3.7918834716       -0.0119802093
 H         -1.6794885059        3.1133266334       -0.0002194350
 H         -2.8653743740        2.1180065490       -0.8951680627
 H         -2.8818961332        2.1146920865        0.8699943546
 H         -1.2152571087       -3.1641495882        0.8951189315
 H         -1.2170804333       -3.1631517984       -0.8902419690
 H         -2.6174770079       -2.5334445147        0.0040999666
 H          1.3308156409       -2.9379373536       -0.0193902392
