72
 energy: -99.357582849875 gnorm: 0.002102838160 xtb: 6.6.1 (8d0f1dd)
N           -1.90078324675963        3.05401260925461        2.22153291233462
C           -1.82769174915002        2.34367856819904        1.19785351660992
C           -2.95548793818271        2.11903454674833        0.22945929499506
C           -3.39297191817824        0.66275713637846        0.28691000507234
C           -4.28496082465806        0.17588349853436       -0.66507522224913
C           -4.73452242463099       -1.14134917971182       -0.61524577315625
O           -5.61005639883733       -1.68796339446333       -1.48441302264635
C           -6.18264807194659       -0.88789487558334       -2.49147120100575
C           -4.26245858922147       -1.98939674293409        0.39362798894091
O           -4.51822009151974       -5.57136073968201        1.49152091493099
C           -4.78047640911098       -6.46692822394347        2.23981757698169
C           -3.38014810169017       -1.50797389049264        1.33416205268976
C           -2.94521198226486       -0.18951609015138        1.28949152963414
C           -2.38420032464298        2.45497995346191       -1.17270041303044
C           -1.44143265197723        1.38704124557459       -1.75771131611814
C           -0.13030200188746        1.30145299081747       -1.07768539162360
N            0.47082738419573        0.17992694411819       -0.70713724225652
C            1.84529487296634        0.19815512746986       -0.26433409542471
C            2.80740502680709       -0.23007826056608       -1.38978719426441
C            4.23251135990762       -0.08892482859873       -0.93331784976541
C            4.90613376576692        1.11171030922254       -1.09180800810349
C            6.21329693526668        1.25633614225795       -0.65426768877045
C            6.87398367876146        0.20032564144939       -0.04272475780693
O            8.13780452310928        0.22547462985219        0.41736897652644
C            8.89964488346627        1.40232357591860        0.27396772311978
C            6.18975289678873       -1.03564950005710        0.12750040442696
O            6.90621587177280       -2.00776987828106        0.72452839621497
C            6.32923411916228       -3.27858507046202        0.90816674834588
C            4.88187859017733       -1.15532935184588       -0.31633078509707
C           -0.17309025981207       -1.10774516173835       -0.81491803151339
C           -4.20215935513914        3.00714070158442        0.51863859866032
C           -4.84341142525746        2.65415007660077        1.85853738002358
C           -3.89956370596435        4.50195981342676        0.46886900027356
H           -4.64407346424845        0.83360792552898       -1.43973784717890
H           -6.72532799746520       -0.03759192232882       -2.06876691842254
H           -6.88289496479083       -1.53355679253583       -3.01759003901365
H           -5.42706791049336       -0.52800040232803       -3.19669448303173
H           -4.61269814708738       -3.00828437745873        0.42408933973636
H           -5.78377218839539       -6.60767434311258        2.67072613556993
H           -4.03557087877831       -7.21622463948757        2.55160700685692
H           -3.03145091903312       -2.16127378142090        2.11897841352984
H           -2.28021704506028        0.17660342929876        2.05657980399094
H           -3.21414032350051        2.58183241597952       -1.86723777401151
H           -1.85428845599181        3.40663987378961       -1.11644694518172
H           -1.94678397143746        0.42348947351655       -1.77645856361096
H           -1.24549630354139        1.68441423277443       -2.79621839776244
H           -0.90139558270453        1.83470113127108        0.86668279916251
H            0.45098615349991        2.20908901921334       -1.00186650497069
H            1.95704749031691       -0.47613861806847        0.58836942050446
H            2.10872252128753        1.20690014634743        0.06023196648582
H            2.63282633702809        0.40719480306706       -2.25856208080610
H            2.60298541922625       -1.26328333935318       -1.67237024824337
H            4.41826269245809        1.94558004039731       -1.57338075037009
H            6.71378088896267        2.19937846908432       -0.80031858651282
H            8.44583770497667        2.24132569010203        0.81005812940477
H            9.03034724343635        1.66851326395609       -0.77913629180826
H            9.86985657467912        1.17687352334111        0.71225675235662
H            7.10047887780236       -3.88344043594622        1.38106602768223
H            5.45446783978988       -3.23134293840522        1.56462031207408
H            6.04766288658219       -3.73334317070923       -0.04659265427483
H            4.35753731504554       -2.09070641781289       -0.19845780031878
H           -0.33020842428772       -1.38529310507858       -1.85914710438164
H           -1.13904599710544       -1.09647846469687       -0.30420947339336
H            0.45294045025960       -1.86276992209025       -0.34727134916173
H           -4.92976899331484        2.78334005442721       -0.27006235178896
H           -4.16726707879310        2.89864604039882        2.67140474669629
H           -5.09080940934051        1.59671644540870        1.91146694019901
H           -5.75895889943408        3.22584269190288        1.98493550655216
H           -3.14757812726828        4.75961981549744        1.20836988969109
H           -3.55925847700758        4.81548911627034       -0.51447951567421
H           -4.80560652863638        5.05583539892334        0.69977770909452
H           -1.06773114727047        3.15803087034222        2.79202459734026
