  25
        -42.16843531
 C          3.2930026566        0.5826726872       -0.0017450089
 N          2.2783478447       -0.2816933816       -0.0235132744
 C          2.3306356684       -1.6248430695        0.1811192089
 N          1.0737756669       -2.1380478245        0.1582199419
 C          0.2019340392       -1.1087382157       -0.0742168677
 C          0.9497637902        0.0370310833       -0.2101757584
 C          0.3379352087        1.4004892088       -0.4259004195
 O          0.9438886937        2.3711092699        0.1698465273
 N         -1.1037896765        1.2426705517       -0.0102545706
 C         -1.7916588750        2.4894970932        0.2139369547
 C         -1.8443093515        0.1024366534       -0.0000251043
 O         -3.0456199350        0.0995922987        0.1282402600
 N         -1.1519499718       -1.1295207203       -0.0997517452
 C         -1.9111471521       -2.3588573920       -0.0849432912
 H          4.2916512228        0.2253542223        0.1573624970
 H          0.2689962431        1.5717097818       -1.5391613368
 H          3.0610015177        1.6304624749       -0.0893199776
 H          3.2258778196       -2.1914873967        0.3336242053
 H         -1.0639270974        3.1962296209        0.6204218195
 H         -2.1928126466        2.8908685404       -0.7212489065
 H         -2.6147549828        2.3342855647        0.9102491953
 H         -1.7765655773       -2.8954390241        0.8570814864
 H         -1.6187859131       -2.9963366807       -0.9204623991
 H         -2.9647644250       -2.0947701702       -0.1827470654
 H          0.8473855031       -3.1125430451        0.2890021998
