25
 energy: 0.000000000000 xtb: 6.6.1 (8d0f1dd)
C            3.23720163006194        1.16630919979326        0.08434469647475
N            2.29877817382611        0.07527477071623        0.03981603040599
C            2.58028210190900       -1.21425402444508        0.03006176031096
N            1.43813958087363       -1.93419271955128        0.00098261760884
C            0.39035688448383       -1.05887472636071       -0.00790371836672
C            0.93510056364412        0.21347819449412        0.01709077491437
C            0.09450143893243        1.40504303904423       -0.00410947031874
O            0.49712751527797        2.54126714362870       -0.00342325688240
N           -1.25076640035757        1.06271879480407       -0.03085478223738
C           -2.21907211982101        2.15522099834493       -0.05001256985998
C           -1.81739487048744       -0.20012725993278       -0.04692818574614
O           -2.99983886758376       -0.37846417018721       -0.07008878229737
N           -0.92618586207120       -1.30210215599479       -0.03682761578324
C           -1.46982264913417       -2.64643102187190       -0.06029820460571
H            3.71247264356769        1.21471455160235        1.06488849150277
H            4.00791497605742        1.03430808813993       -0.67357694370751
H            2.69910007168542        2.09770118228144       -0.09130154882931
H            3.56654120610678       -1.63682992603973        0.04233140067262
H           -1.67107961066214        3.09322851271934       -0.02552706933167
H           -2.82428953597071        2.09428624779827       -0.95318082946668
H           -2.87644029173232        2.07745725625962        0.81450067533302
H           -1.17061996399332       -3.19584890659852        0.83242232437030
H           -1.14560257411436       -3.17511610292205       -0.95688275822323
H           -2.55549792440841       -2.55659984320617       -0.07459039797972
H            1.38130855184625       -2.94313852034425       -0.01389874181052
25
 energy: -3.757743169524 xtb: 6.6.1 (8d0f1dd)
C            3.24901536009761        1.16782627256342        0.08011025686025
N            2.31185687855538        0.08747611590778        0.03434790056329
C            2.60269609157496       -1.24050201476452        0.02983094501636
N            1.43051572787764       -1.94735821973217        0.00300342781305
C            0.40010864484175       -1.06143844494612       -0.00757612740216
C            0.93416534423159        0.21714619123797        0.01342098145161
C            0.10885970715835        1.39501975429637       -0.00524428282469
O            0.51165117670367        2.55812876007561       -0.00798252561921
N           -1.25574538237364        1.06089640317771       -0.03089899402131
C           -2.22045575089453        2.16519367005437       -0.04258925314513
C           -1.81727296774939       -0.19722913914251       -0.05004615739528
O           -3.01357406379250       -0.38287679793956       -0.06991484640368
N           -0.93044042000964       -1.30311545571957       -0.03592757902915
C           -1.46478651265448       -2.64875879303535       -0.05522681152691
H            3.72382930528049        1.21801594089031        1.06345803361845
H            4.01921209861300        1.02749788457373       -0.67965928299631
H            2.70386426324934        2.09196017427353       -0.10231876564405
H            3.58081264941926       -1.66693408616219        0.04234185812173
H           -1.77161726674534        3.16557499436186        0.02399557330577
H           -2.78373778448545        2.14221941076264       -0.95819352312504
H           -2.92615460801131        2.03902028659365        0.77279375873271
H           -1.16179452377663       -3.19840227624358        0.83850273419006
H           -1.13255318871694       -3.18371306575483       -0.94756927086544
H           -2.55042031706169       -2.56523142461648       -0.07238973183191
H            1.36418020660472       -2.95138753854006       -0.00923442169570
25
 energy: 0.471076310208 xtb: 6.6.1 (8d0f1dd)
C            3.26805890316443        1.15872939815979        0.06822972325865
N            2.32697824187682        0.09222933316328        0.02208477710545
C            2.62342005328890       -1.27319440556288        0.02930961905665
N            1.41842386744185       -1.95881992584778        0.00735756844177
C            0.41154416847735       -1.06289027005639       -0.00585117652159
C            0.93461886392142        0.22087412186071        0.00692364242063
C            0.13018971445812        1.38239368239596       -0.00736927152357
O            0.52519694549534        2.56367844989161       -0.01892021410621
N           -1.26235778744760        1.07177762023469       -0.02638121355793
C           -2.23210903710158        2.18255597596739       -0.03080693904359
C           -1.81164093085197       -0.18474226813871       -0.04903014829233
O           -3.01535128369814       -0.38522780646339       -0.06761015623587
N           -0.93420167395472       -1.29677513243520       -0.03214416674181
C           -1.45285544714530       -2.64781536691042       -0.04459030113564
H            3.74283840294278        1.21956850752523        1.05378582848773
H            4.04150073621838        1.01076096990112       -0.68958964503195
H            2.72025614544693        2.07843203597659       -0.12535226842450
H            3.59200468018477       -1.70566571391611        0.04128998609800
H           -1.93472302551297        3.26844447997612        0.14732814776935
H           -2.69822639067059        2.23754908181483       -0.99794582202156
H           -3.03222901061119        1.94803794935152        0.69030198767812
H           -1.14536347436458       -3.19589436453778        0.85170277589780
H           -1.10767757761357       -3.19372921224799       -0.92872018977863
H           -2.53905923094348       -2.58142366424868       -0.06728377801076
H            1.34297881493485       -2.95982487368154        0.00031513035909
25
 energy: 10.074563671221 xtb: 6.6.1 (8d0f1dd)
C            3.28714817495482        1.14360215135006        0.05110503509589
N            2.33879160936026        0.08858778675289        0.00650879071526
C            2.63588166396960       -1.30250635496166        0.02657079243544
N            1.40908458758518       -1.96857935649569        0.01116617906036
C            0.42036231924383       -1.06535893375164       -0.00244964651654
C            0.93613881488866        0.22206294496814        0.00100578059970
C            0.14601024828307        1.37646364037455       -0.00641664909334
O            0.53157262899497        2.56618062757662       -0.03001138643890
N           -1.27280888369085        1.09119877156877       -0.00671607623355
C           -2.25430479284319        2.20454589960518       -0.01735851077162
C           -1.80764260982889       -0.17041021111551       -0.03643832578683
O           -3.01293402591449       -0.39022018545076       -0.05895449411540
N           -0.93570326848643       -1.28769080032069       -0.02460922946211
C           -1.43672661924378       -2.64606558112110       -0.03172993402274
H            3.76063023338854        1.21706364454718        1.03834969350770
H            4.06596573925093        0.98706449923742       -0.70136232626415
H            2.74373320854595        2.06347316558468       -0.15559709298730
H            3.59857605355733       -1.74096229928851        0.03595713426194
H           -2.10844619801282        3.34865811762408        0.30736723810489
H           -2.57407073971563        2.36746765463157       -1.05712787321728
H           -3.16365559730291        1.84458640025337        0.56832158065970
H           -1.12445821733034       -3.18914154694665        0.86835330356497
H           -1.07604865194724       -3.19964947589168       -0.90754715278377
H           -2.52368659682072       -2.60232075353011       -0.06136062335139
H            1.32880558705046       -2.96902120302863        0.01000768918633
25
 energy: 18.477793823801 xtb: 6.6.1 (8d0f1dd)
C            3.30092608801571        1.12672031081754        0.03757387293812
N            2.34416814284485        0.07861681754727       -0.00695850833907
C            2.63858790757017       -1.32193423623449        0.02255069466376
N            1.40508732733573       -1.97507603490598        0.01193944126698
C            0.42470259190376       -1.06947142060136        0.00123535611097
C            0.93690050833593        0.21951076294204       -0.00302847215435
C            0.15093475002892        1.37514674725974       -0.00473932937149
O            0.52718425024263        2.56194753700301       -0.03952535629334
N           -1.28867208675220        1.11088590184966        0.02870852333250
C           -2.28094027836721        2.22811324552388       -0.00848495751945
C           -1.80837556921642       -0.16125830903602       -0.01022561494814
O           -3.00879272832738       -0.40290323624698       -0.04238869535245
N           -0.93511433616313       -1.28031004923827       -0.01570845932276
C           -1.41900718222546       -2.64672031038364       -0.02415060920470
H            3.77060606588864        1.21107820551651        1.02652916582923
H            4.08694707079456        0.96288141634364       -0.70656650503463
H            2.76722080191711        2.05048397136871       -0.18155044882843
H            3.60017539165285       -1.76409889602579        0.02782140759727
H           -2.26667244347535        3.38944830915648        0.41966940475066
H           -2.45686478710111        2.49311711850462       -1.08080710090327
H           -3.25071006239655        1.79179867248140        0.43735393295755
H           -1.10361601107481       -3.18459395290759        0.87913270538404
H           -1.04201563960217       -3.20057151452314       -0.89417894324299
H           -2.50639755528728       -2.62663665308065       -0.06210687306862
H            1.32595245139449       -2.97714580095875        0.01493926489990
25
 energy: 20.768653212013 xtb: 6.6.1 (8d0f1dd)
C            3.30768632122012        1.10775259376075        0.02852630136713
N            2.34244104314371        0.05840239832171       -0.01796473762543
C            2.62761722567039       -1.32750011065205        0.01871760148310
N            1.40862248699371       -1.97621653509021        0.01075571291712
C            0.42296728186893       -1.07552402038126        0.00374249077214
C            0.93872907277849        0.21185160895978       -0.00635539074295
C            0.14642570776565        1.38115069121230       -0.00643758353730
O            0.51328169528216        2.54770170935860       -0.05034175966153
N           -1.30819205993685        1.13364410651119        0.07992004318281
C           -2.31263767799046        2.25547924161563       -0.00325825827344
C           -1.81405203680110       -0.15606444127191        0.02334938166339
O           -3.00004505295007       -0.42183365585797       -0.02210460189990
N           -0.93156191011382       -1.27335501086034       -0.00837700228085
C           -1.40245406190271       -2.64843057119698       -0.02145112220166
H            3.77099347389461        1.20234710659062        1.01874432708244
H            4.10225439257500        0.94047998342809       -0.70453233619700
H            2.78840584535730        2.03930386959293       -0.20124291181083
H            3.59482644484824       -1.77117771074549        0.01824107445057
H           -2.42383885586752        3.38041336464569        0.48112995472987
H           -2.33910832557660        2.60874259642340       -1.04379421430694
H           -3.27023763940396        1.78240224564729        0.28452330648212
H           -1.08757860885351       -3.18021302111499        0.88514363707442
H           -1.01088902233626       -3.19625558342241       -0.88765407798360
H           -2.48929755785258       -2.65085454437974       -0.06878368019512
H            1.33785648612344       -2.98321770892276        0.01653774165873
25
 energy: 22.417434700305 xtb: 6.6.1 (8d0f1dd)
C            3.30544825433802        1.09734422090994        0.01496085038601
N            2.33733334338128        0.04577709054142       -0.03005321516492
C            2.61281105442221       -1.31421283866967        0.00955240636433
N            1.41541259335832       -1.97302636322888        0.01001346574664
C            0.41506161922002       -1.07858654789631        0.01002495788581
C            0.93862669353650        0.20698819427270       -0.00067330287752
C            0.13962521073644        1.38741764477828        0.01157021738635
O            0.50590216568920        2.54291613545432       -0.06420650305688
N           -1.31651425328634        1.14039076809025        0.14150886973639
C           -2.32013796923557        2.27869449944425        0.00222457398122
C           -1.82521061825155       -0.15745668899540        0.04998453554035
O           -3.00228154724190       -0.43297407147970        0.00554088837883
N           -0.93078635118197       -1.27149600572638        0.00357476884646
C           -1.39747912735224       -2.65139194627085       -0.01342875808282
H            3.76091133384046        1.19142592607711        1.00710228068588
H            4.10176311540625        0.92043937497860       -0.71222768116454
H            2.79501575466976        2.03127572315319       -0.22158221914971
H            3.58532921873558       -1.75517996683786       -0.00251683413070
H           -2.54317646074428        3.33987477470527        0.57059615600489
H           -2.14970724117299        2.72086730431643       -1.00187336087060
H           -3.30992616284144        1.73570987920076        0.07514844310042
H           -1.08258262892684       -3.17951435629593        0.89399426201339
H           -0.99642374071253       -3.18810692182122       -0.87998569901530
H           -2.48217300281957       -2.66566103161950       -0.06715145990427
H            1.35537341436955       -2.98248619490902        0.01493625350760
25
 energy: 19.872903351929 xtb: 6.6.1 (8d0f1dd)
C            3.29403976788129        1.09793995507502        0.01078282432230
N            2.32776771277290        0.03911190179299       -0.03439661339985
C            2.59109344534985       -1.27800622354368        0.00412669728096
N            1.42486990206610       -1.96378818435244        0.01042941268251
C            0.39998779787553       -1.07634851109917        0.01674909829455
C            0.93725762379357        0.20607054210213        0.01119687471753
C            0.12120379030505        1.39404583566227        0.02911000645537
O            0.49826431242936        2.54344821675484       -0.08926564172179
N           -1.31492775184158        1.12725356288103        0.18893903232041
C           -2.31233155814974        2.28507737956465       -0.00225108966794
C           -1.84052116398606       -0.16836676750305        0.06612829532395
O           -3.01180720525593       -0.43483784187202        0.02289181548142
N           -0.93120339606726       -1.27601321656974        0.01307189230705
C           -1.40423156241041       -2.65644055599901       -0.01257680743990
H            3.74107177790879        1.18243429571923        1.00515634293325
H            4.08860661986207        0.91296285925765       -0.71351274298237
H            2.78649154021499        2.03017988731357       -0.22583940035104
H            3.56951104393248       -1.71757504978974       -0.01883263391552
H           -2.60727313358875        3.23426758521428        0.58440717290905
H           -2.00228884211361        2.77152713009706       -0.87984407897397
H           -3.23957135823972        1.74168404769135       -0.10782892243751
H           -1.09022009436423       -3.18470668241711        0.89234565451403
H           -1.00050686961518       -3.17910126307426       -0.88357089440144
H           -2.48635650483370       -2.66774621997314       -0.06892432673001
H            1.37328877401057       -2.97404408076089        0.00854192862623
25
 energy: 23.768345767613 xtb: 6.6.1 (8d0f1dd)
C            3.29103024133135        1.10003188594514       -0.00116331178569
N            2.32418671862240        0.04535984934754       -0.04611091954354
C            2.59042409464065       -1.27202333727378       -0.00304415662705
N            1.42402363476000       -1.96643890164902        0.01146586072645
C            0.39734181790989       -1.07808896375922        0.02670714689588
C            0.93004728389158        0.20794218181697        0.01945160045333
C            0.11000663014361        1.38479652214273        0.04386693098449
O            0.48810473414410        2.54216473515679       -0.11111017178412
N           -1.32152459619897        1.11278273521788        0.23506426709379
C           -2.30946819518581        2.28624047514664       -0.00100541231344
C           -1.84762170173270       -0.17720865791906        0.09690267080620
O           -3.02141348429447       -0.44508924907615        0.04522822815279
N           -0.93528971591489       -1.28288582758130        0.03005787087543
C           -1.40296224506068       -2.66477752595474       -0.00575779231516
H            3.73428473023885        1.18253464846464        0.99553803012842
H            4.08652493574680        0.90454786702565       -0.72238361358602
H            2.78419520680514        2.02964007503625       -0.24357225878768
H            3.56775460678388       -1.71079102713840       -0.03744357924600
H           -2.74656096790048        3.19868783268158        0.68300136526672
H           -1.79619042539192        2.90296973295259       -0.83617020681162
H           -3.24516797389506        1.72070328260813       -0.31095258606101
H           -1.08658783720859       -3.19564009991184        0.89702076388105
H           -0.99281116274803       -3.18157485362182       -0.87850518903850
H           -2.48501628943096       -2.68002155397066       -0.06457263987518
H            1.37490462788071       -2.97483322351476        0.00452099865774
25
 energy: 21.121382300872 xtb: 6.6.1 (8d0f1dd)
C            3.28854310547911        1.10868613477334        0.00249838948440
N            2.32262264661097        0.05804917339961       -0.04389061048359
C            2.59930858238668       -1.28009902498840       -0.00090117816919
N            1.41879328334459       -1.97040862593578        0.01329712528985
C            0.40149815671878       -1.07734685177677        0.02870599606071
C            0.92468436221678        0.21164001308928        0.02011403821075
C            0.10799234056446        1.37675591283113        0.03663910720197
O            0.48694360814117        2.53940482413072       -0.10701265725701
N           -1.31833864805909        1.10571184584666        0.21656826418303
C           -2.29226407727360        2.28104135093434       -0.00562299111918
C           -1.84208202117276       -0.17772560428771        0.09476519869935
O           -3.02279259555554       -0.43888938999342        0.04211743382467
N           -0.93848035916851       -1.28734902299663        0.03287408185730
C           -1.40487996149917       -2.66717928294197       -0.00790424996188
H            3.73374866570162        1.19111012740415        0.99963633488085
H            4.08483699038953        0.91348774849363       -0.71934429119760
H            2.77808542337934        2.03696541437293       -0.24024949422078
H            3.57279320160666       -1.71906979056433       -0.03628975697118
H           -2.74336357807416        3.20720196507717        0.65883275735460
H           -1.81791439765693        2.88343176926156       -0.79828625891776
H           -3.21678746189404        1.73926132780892       -0.30634220437197
H           -1.08919577671567       -3.20492077842139        0.89226603182732
H           -0.99713900701646       -3.18627811654643       -0.88220488062237
H           -2.48870717503478       -2.67792499026001       -0.06594938529654
H            1.36430936051737       -2.97652752653881        0.00271709586151
25
 energy: 19.574340231719 xtb: 6.6.1 (8d0f1dd)
C            3.27690239809846        1.12241909493311        0.00357274801162
N            2.31365512130773        0.07225748236926       -0.04321888027510
C            2.60548525431079       -1.27916943037589       -0.00222948113437
N            1.41652910244111       -1.97234373251173        0.01335775090388
C            0.40283517977119       -1.07981629383095        0.03120874120054
C            0.91385066792263        0.21145140600899        0.02309689852055
C            0.09183656961338        1.36502657073388        0.03589148826615
O            0.47416743491616        2.53061141426711       -0.09012569179075
N           -1.32256024462565        1.08950728858550        0.21408316438177
C           -2.27084112129165        2.27645515132841       -0.00599879033135
C           -1.84108168616069       -0.18861118865123        0.09327540381802
O           -3.02802786670556       -0.44018105313663        0.04418047392850
N           -0.94203077036591       -1.29997338313349        0.03900821757535
C           -1.40958072850250       -2.67600415481068       -0.00638365586372
H            3.72703885655322        1.20619462238122        0.99928839337427
H            4.07160918954867        0.93050929287144       -0.72108993155851
H            2.76223137790005        2.04904312446858       -0.23771973191125
H            3.57723027706968       -1.71417746807137       -0.04397414286142
H           -2.76180477017002        3.16445759588677        0.63340487800701
H           -1.73962412524815        2.91524993221623       -0.70150691440486
H           -3.16600074225954        1.77723806679390       -0.39306508789184
H           -1.09488060635385       -3.22247784794955        0.88981772694229
H           -1.01088397860128       -3.19595489134800       -0.88475206711773
H           -2.49442355053477       -2.67593503444294       -0.05985703153014
H            1.36058342930289       -2.97674796241016       -0.00323058211164
25
 energy: 20.332435869587 xtb: 6.6.1 (8d0f1dd)
C            3.26855905574817        1.12866976987049        0.00136635658549
N            2.30701514807818        0.07701457581540       -0.04363528786019
C            2.60770655975783       -1.27790686812115       -0.00419702838940
N            1.41679498811355       -1.97324172976834        0.01192248710324
C            0.40281208548911       -1.08340339271499        0.03249267290444
C            0.90813981092658        0.20777940897185        0.02544121486839
C            0.08154314397099        1.36048473917975        0.04153854388837
O            0.46961495270840        2.52681131650920       -0.07555406187902
N           -1.32731055944634        1.08281321441001        0.21886865774420
C           -2.26056580964647        2.27606991867195       -0.01413948580146
C           -1.84120781109446       -0.19613598277801        0.09495048184634
O           -3.03008035684566       -0.44272502360240        0.04333060010925
N           -0.94297718664916       -1.30784662958771        0.04414158838421
C           -1.41348644884454       -2.68107274114424       -0.00262001554368
H            3.72297852307063        1.21404998189508        0.99511468614739
H            4.06088425113548        0.94042635852891       -0.72691442048603
H            2.75201706668640        2.05529269402368       -0.23707969476296
H            3.57996338403239       -1.70864966677812       -0.05232535977712
H           -2.82146340201882        3.13300184167672        0.64488316334708
H           -1.64581568951187        2.94879478428040       -0.60852947227223
H           -3.12546229154963        1.79467805373071       -0.51183837939659
H           -1.09808778863145       -3.23137373123955        0.89117609591403
H           -1.02267590870121       -3.20222852417865       -0.88383788258226
H           -2.49904521139221       -2.67458890562734       -0.05034895444586
H            1.36236416255048       -2.97768485985187       -0.00717260949836
25
 energy: 18.902662150976 xtb: 6.6.1 (8d0f1dd)
C            3.26151876205858        1.13276985756301        0.00104845393971
N            2.30179344567900        0.07798755956215       -0.04058132042897
C            2.60809925758078       -1.27571193912015       -0.00443453961887
N            1.41852016238913       -1.97208840426642        0.00888079292342
C            0.40169535109376       -1.08711424810357        0.03035257761735
C            0.90472207012420        0.20296522758737        0.02570568823183
C            0.07312587821549        1.35842933848172        0.04886530132758
O            0.46612710776081        2.52506761921050       -0.05632434298869
N           -1.33680447100538        1.07807481743059        0.21438907185059
C           -2.26369597432056        2.27125506697518       -0.02188090422207
C           -1.84465386126791       -0.20511090070524        0.09011032950834
O           -3.03292244775415       -0.45060942393465        0.03523936517485
N           -0.94287801302828       -1.31368957120650        0.04323182156515
C           -1.41582335758635       -2.68503903611267       -0.00047391396599
H            3.72130528394547        1.21847630718319        0.99200917401427
H            4.05050468454029        0.95045910551261       -0.73256165674227
H            2.74290784485054        2.06002414255298       -0.23165615881726
H            3.58249157539574       -1.70110917173089       -0.05489627805542
H           -2.82249276978839        3.10375252561764        0.63376961476359
H           -1.60657690702574        2.96752180899293       -0.56628586371218
H           -3.09086003506344        1.82683759068641       -0.54602104250833
H           -1.09777155507900       -3.23442608085513        0.89264343063855
H           -1.03196439183053       -3.20778735954453       -0.88361739174431
H           -2.50192080827209       -2.67439788825318       -0.04159660848305
H            1.36776783632440       -2.97750834135162       -0.00888170412053
25
 energy: 19.107861068009 xtb: 6.6.1 (8d0f1dd)
C            3.26137925648089        1.13109741161651        0.00043300040838
N            2.30167218623595        0.07508969303862       -0.03838195520803
C            2.60716525094676       -1.27603082758288       -0.00452741552551
N            1.41927631107742       -1.97143583743043        0.00595924641414
C            0.40097009151722       -1.08822100747037        0.02877158665275
C            0.90601871869167        0.20075958866631        0.02544543162546
C            0.07526483991217        1.35934990962621        0.05458606363853
O            0.47104214518033        2.52472556419171       -0.04535752287301
N           -1.33958730869182        1.08132968464393        0.21529560220567
C           -2.26398573986520        2.27522644177567       -0.02501528855179
C           -1.84580430594364       -0.20516701159640        0.09057932694033
O           -3.03240982575882       -0.45191211503657        0.03221024971585
N           -0.94231932119744       -1.31256401077107        0.04195109519007
C           -1.41560181019389       -2.68441765303366       -0.00012462154815
H            3.72382655005470        1.21615403603778        0.98990298152497
H            4.04840527647134        0.95116982942892       -0.73606890074438
H            2.74212031902693        2.05911654552456       -0.22898414437662
H            3.58295257866864       -1.69948286953217       -0.05574436196515
H           -2.82483642409242        3.10559238129784        0.62621151049450
H           -1.60652050416121        2.95723541602784       -0.53874940660662
H           -3.09726224947705        1.83415441756251       -0.57221752257244
H           -1.09509169813069       -3.23238339831883        0.89274982067162
H           -1.03338978027440       -3.20745691074825       -0.88378487200982
H           -2.50186345433828       -2.67519690179692       -0.03860495334667
H            1.37079356579720       -2.97770377394909       -0.00950105400679
25
 energy: 19.699247082517 xtb: 6.6.1 (8d0f1dd)
C            3.26266177268259        1.13025580458209       -0.00007557303231
N            2.30227634934876        0.07543741216787       -0.03762639252844
C            2.60646678396277       -1.27627760083772       -0.00303858267003
N            1.41851528977582       -1.97171524822453        0.00638947338064
C            0.40033508554950       -1.08783321858666        0.02837694255182
C            0.90571201168228        0.20217554263638        0.02395315610121
C            0.07641504449278        1.35807697182605        0.05155186043714
O            0.47052871106826        2.52437534989478       -0.04857111438372
N           -1.34143703936874        1.08028622180294        0.21132146512232
C           -2.26568059079219        2.27482728664312       -0.02516404596884
C           -1.84740254667376       -0.20522078074781        0.08924111820426
O           -3.03382318835539       -0.45346496166814        0.03168328528811
N           -0.94317466820659       -1.31170914633478        0.04092718445645
C           -1.41408417908168       -2.68489544997308        0.00014738122622
H            3.72484633348520        1.21447171764773        0.98969336819793
H            4.04983877283728        0.94810715248329       -0.73620810271251
H            2.74339174892483        2.05799205973862       -0.23035255715454
H            3.58211864834415       -1.69995878293380       -0.05355088545481
H           -2.83243771532086        3.11010101002738        0.63279802587646
H           -1.60623937172550        2.96740086621479       -0.53560117165482
H           -3.09535959535963        1.83186644800737       -0.57276350508124
H           -1.09245697216353       -3.23140121623190        0.89359051821070
H           -1.02920819446280       -3.20770141852104       -0.88274853776639
H           -2.50028795043355       -2.67841501043337       -0.03987461150710
H            1.37070012772634       -2.97775240700781       -0.00706480299124
25
 energy: 20.016678797169 xtb: 6.6.1 (8d0f1dd)
C            3.26412669619475        1.12927091878760       -0.00051184165820
N            2.30324084151195        0.07506030346527       -0.03600229598690
C            2.60552104326330       -1.27650496380484       -0.00209291005602
N            1.41803980912860       -1.97179761302880        0.00567617730424
C            0.39974234687031       -1.08762320018120        0.02760915327710
C            0.90580459283432        0.20339196609852        0.02316558057129
C            0.07826232455375        1.35767304275915        0.05181906549567
O            0.46977525036520        2.52495735004296       -0.04822339079731
N           -1.34343708565330        1.07963468930475        0.20975089523737
C           -2.26839887019110        2.27401108723455       -0.02477244659168
C           -1.84892464496523       -0.20510699903359        0.08892612977496
O           -3.03485539505335       -0.45531021927998        0.03169009135654
N           -0.94368536676843       -1.31068065191862        0.03919275272966
C           -1.41284383545660       -2.68504048338483       -0.00030223942254
H            3.72720674414652        1.21290358478706        0.98892911470580
H            4.05059714246134        0.94605324872298       -0.73716937642574
H            2.74468238585231        2.05681820395069       -0.23059975053186
H            3.58134815987875       -1.70034996513231       -0.05211889708677
H           -2.83161461019376        3.11485111244375        0.63189658419391
H           -1.60851580057608        2.96806149211800       -0.53627351104793
H           -3.09957012725039        1.83488657018187       -0.56811547613932
H           -1.09032626148574       -3.23014901978353        0.89363353506640
H           -1.02635040455172       -3.20757092955315       -0.88264230674351
H           -2.49876323470629       -2.68062617974596       -0.04108936217308
H            1.37115296772723       -2.97778474287857       -0.00534137890481
25
 energy: 20.338302457233 xtb: 6.6.1 (8d0f1dd)
C            3.26479084784450        1.12874336877151       -0.00099032781866
N            2.30385622484337        0.07439868983852       -0.03373285151791
C            2.60451077678760       -1.27647140015436       -0.00127417532295
N            1.41789813200856       -1.97176893457076        0.00456345581033
C            0.39917267021357       -1.08790824301985        0.02661160733752
C            0.90563089659873        0.20398445352806        0.02248149225645
C            0.07971278929429        1.35758953643557        0.05274806948625
O            0.46813991323991        2.52577602904338       -0.04642245628455
N           -1.34561774321641        1.07865992700859        0.20846990691527
C           -2.26980897258092        2.27377961515269       -0.02467392319264
C           -1.85036448104547       -0.20536531536242        0.08798730167142
O           -3.03573377949984       -0.45751075407041        0.03178547979504
N           -0.94399128528712       -1.31038089282233        0.03695647256989
C           -1.41229321182831       -2.68542586159863       -0.00065620658408
H            3.72935026477064        1.21272628420596        0.98775203110836
H            4.05020314865783        0.94525411987433       -0.73860117215654
H            2.74500854234930        2.05610089096584       -0.23068548740786
H            3.58071435682969       -1.70021212880852       -0.05115340517400
H           -2.82990263051411        3.11957292378566        0.63085318939709
H           -1.60596874966716        2.96701698431926       -0.53283099758703
H           -3.10263903046630        1.83749898492150       -0.56817766740682
H           -1.08933431443040       -3.22916723416236        0.89386969479181
H           -1.02530898944840       -3.20812706156767       -0.88249051564160
H           -2.49792125404822       -2.68188825273926       -0.04152166398679
H            1.37211054653102       -2.97784712680252       -0.00383395491078
25
 energy: 20.511567528242 xtb: 6.6.1 (8d0f1dd)
C            3.26465402323345        1.12882169141129       -0.00106629031881
N            2.30411539131059        0.07400914423491       -0.03229984677659
C            2.60435606304664       -1.27645270039077       -0.00113681461429
N            1.41807249997960       -1.97172741084705        0.00387144309297
C            0.39915865134697       -1.08821110274848        0.02629033171440
C            0.90549207728818        0.20390512123640        0.02247733772980
C            0.08030726326890        1.35777040058960        0.05347526739361
O            0.46706044168170        2.52630282368979       -0.04571503677978
N           -1.34614748662276        1.07808611318139        0.20844689554425
C           -2.26971768092263        2.27389808425157       -0.02503940651764
C           -1.85060661790711       -0.20539496905198        0.08789536233352
O           -3.03584575955539       -0.45835213320166        0.03229184215166
N           -0.94389131113730       -1.31073039195474        0.03582412826191
C           -1.41252937535847       -2.68564005352975       -0.00100567183714
H            3.72983904834248        1.21363205162731        0.98731220848594
H            4.04966394307915        0.94553895731597       -0.73908403573685
H            2.74453564113451        2.05597889496209       -0.23078163757817
H            3.58065602321650       -1.70019853613199       -0.05105837276903
H           -2.82732263832492        3.12358052364290        0.63004703349207
H           -1.60443384903500        2.96371289709178       -0.53346094531088
H           -3.10377422423196        1.83785236260542       -0.56620362603256
H           -1.08987453342709       -3.22909043906230        0.89379459650074
H           -1.02587178536853       -3.20876776592804       -0.88261351274868
H           -2.49814940642278       -2.68163058637181       -0.04164672203124
H            1.37246826932164       -2.97786437445010       -0.00358063150196
25
 energy: 20.617150639521 xtb: 6.6.1 (8d0f1dd)
C            3.26370552203123        1.12951688364600       -0.00106516253749
N            2.30399540104011        0.07387392403911       -0.03084510995882
C            2.60471066360122       -1.27626415094907       -0.00149522168488
N            1.41856532534656       -1.97170291102374        0.00311531409475
C            0.39936438583037       -1.08872721382774        0.02638827595719
C            0.90509832483613        0.20331522493357        0.02301062132147
C            0.08001485012114        1.35761644729621        0.05455553915488
O            0.46572472667460        2.52620396252615       -0.04543992301718
N           -1.34641266993778        1.07707114146580        0.21006415224439
C           -2.26868294521943        2.27448456276559       -0.02519558678649
C           -1.85057334148181       -0.20578140466167        0.08863283991040
O           -3.03583822043292       -0.45916139976702        0.03340072820001
N           -0.94361375650016       -1.31193225838982        0.03515096070121
C           -1.41310384153007       -2.68626820833465       -0.00138162598540
H            3.72921926971976        1.21560998162214        0.98702445640319
H            4.04861665541361        0.94667554972414       -0.73928909575651
H            2.74300763196902        2.05632238882778       -0.23105752355881
H            3.58100559007135       -1.69996895854311       -0.05166608407478
H           -2.82336172018526        3.12714203714681        0.62779837848709
H           -1.59971178269004        2.96182707747593       -0.53364559662182
H           -3.10498498238963        1.83811600207924       -0.56582928798620
H           -1.09102415488693       -3.23004376910724        0.89349133418126
H           -1.02727579805419       -3.21000830348175       -0.88296088780667
H           -2.49893149913169       -2.68100449254795       -0.04153217876856
H            1.37270103372118       -2.97788351074295       -0.00419541996496
25
 energy: 20.739392079456 xtb: 6.6.1 (8d0f1dd)
C            3.26360973033169        1.12951775406646       -0.00087978732266
N            2.30390428873897        0.07395259974969       -0.03092849042042
C            2.60503806924625       -1.27636912801200       -0.00165591663382
N            1.41862550022794       -1.97175832069519        0.00335831770570
C            0.39953467390776       -1.08862875261011        0.02659966489721
C            0.90523278682787        0.20314768200980        0.02312227350705
C            0.07987242722834        1.35765186223110        0.05396209700685
O            0.46657057062850        2.52593240083955       -0.04622136981725
N           -1.34574042303005        1.07754851931848        0.20992989361980
C           -2.26868967251596        2.27462331252773       -0.02550116385962
C           -1.85012259976137       -0.20546022013373        0.08825921994036
O           -3.03548363655072       -0.45850481132380        0.03317208621175
N           -0.94346017794741       -1.31197580353492        0.03538380569808
C           -1.41316686727906       -2.68612774709992       -0.00125785453589
H            3.72868756554968        1.21568213315379        0.98739275242584
H            4.04881378083054        0.94647269139010       -0.73880498086336
H            2.74296199067634        2.05628557454544       -0.23123512707223
H            3.58118598699719       -1.70015511571807       -0.05161653781810
H           -2.82418981245441        3.12873913899271        0.62812372031251
H           -1.60136305136157        2.96101224885228       -0.53535965454220
H           -3.10419835089787        1.83623794252473       -0.56342161972742
H           -1.09117973966095       -3.23021772266210        0.89351433733503
H           -1.02748396788653       -3.20997934936876       -0.88291230383201
H           -2.49906674746478       -2.68068751342655       -0.04146380788421
H            1.37232234355597       -2.97791077344497       -0.00452565818374
