25
 energy: -42.439733523332 xtb: 6.6.1 (8d0f1dd)
C            3.27999616295607        1.09821110163177        0.00514069147300
N            2.33140307395787        0.02227434206176       -0.00144170767701
C            2.61807677184199       -1.29570006627438        0.00067219955212
N            1.46526176389975       -2.00683363573965        0.00259372578763
C            0.42317544041308       -1.13789845381872        0.00796527009517
C            0.94328102001730        0.15893197689330        0.00262565133683
C            0.14714135082380        1.31919452001473       -0.01251411482629
O            0.53185593870430        2.48798632169734       -0.05478587076058
N           -1.26733604537817        1.01426780583318       -0.02029000392803
C           -2.10502170321777        2.05506236857097       -0.17337889635953
C           -1.80179957165066       -0.28316786010907        0.00101034642136
O           -2.99409862461056       -0.50873592658741       -0.00181249978316
N           -0.90441771523931       -1.36885231465327       -0.00667825076766
C           -1.40120061849507       -2.72844558030651       -0.00340028644267
H            3.74166989773165        1.19261393432208        0.99178785026428
H            4.06330374494815        0.91550666052976       -0.73253132727899
H            2.75146169032153        2.02443536680557       -0.22873938379764
H            3.60063995164045       -1.71277245852485       -0.01786716693850
H           -3.54777115039597        4.21152158859693        0.45195123004613
H           -1.62728185095029        2.98035552738758       -0.44985035093593
H           -3.11420274308846        1.83560743438783       -0.47113536492071
H           -1.09568455964706       -3.24843987863514        0.90803000208517
H           -1.01979510175568       -3.26039269517014       -0.87653863166191
H           -2.48939006311212       -2.69054763550103       -0.04318437982107
H            1.42530582094056       -3.01337765584430        0.02644859806471
