  25
        -42.13596191
 C          3.3731537974        0.5873895140        0.0117525341
 N          2.2565336131       -0.3169377034        0.0012791658
 C          2.3107818318       -1.6538684990        0.0094980834
 N          1.0517975525       -2.1637907919        0.0046688762
 C          0.1746961544       -1.1194547979       -0.0032317244
 C          0.9275071083        0.0518119054       -0.0053608017
 C          0.3279691015        1.3478562464       -0.0162620419
 O          0.8886185738        2.4254236209       -0.0430766149
 N         -1.1080291799        1.2649804502        0.0085070619
 C         -1.7867933968        2.4226160678        0.0358007594
 C         -1.8761493525        0.0697182388        0.0082413729
 O         -3.0791246379        0.1017536952        0.0270468121
 N         -1.1760951016       -1.1350131692       -0.0194463217
 C         -1.9216665746       -2.3786697681       -0.0286881462
 H          3.8636972316        0.5764464420        0.9869240186
 H          4.0988290702        0.3004287447       -0.7488154431
 H          3.0102028423        1.5953120975       -0.1864504601
 H          3.2085587831       -2.2370825279        0.0192050135
 H         -2.2439483450        5.7961234661        0.1095094587
 H         -1.2201263244        3.3374096457        0.0344992374
 H         -2.8608827181        2.3936375992        0.0508655017
 H         -1.7214867020       -2.9509449553        0.8779066330
 H         -1.6641568462       -2.9673585777       -0.9096099693
 H         -2.9815938827       -2.1303739220       -0.0635166185
 H          0.8231728362       -3.1465849715        0.0132744190
