  25
        -42.08008009
 C          3.2251069883        1.1476026377       -0.0119963758
 N          2.2825699573        0.0588094663       -0.0106287244
 C          2.5672512218       -1.2319486676       -0.0158660145
 N          1.4357951643       -1.9584586063       -0.0076861433
 C          0.3739261450       -1.0836803759        0.0028574539
 C          0.9172139598        0.1971266623       -0.0003234523
 C          0.0938597038        1.3887224318        0.0068682552
 O          0.5004045685        2.5276794469        0.0137517524
 N         -1.2626287910        1.0582094423        0.0026404872
 C         -2.2163594885        2.1644765760       -0.0074977383
 C         -1.8418548385       -0.1835190287       -0.0099240630
 O         -3.0248630893       -0.3644749280       -0.0354351466
 N         -0.9547745528       -1.3382875538        0.0118142390
 C         -1.5183226957       -2.5588720157        0.0192154806
 H          3.8471370559        1.1090706313        0.8823138414
 H          3.8680787394        1.0902203122       -0.8899951423
 H          2.6729750286        2.0872669065       -0.0265147020
 H          3.5575542295       -1.6462878663       -0.0258972998
 H         -1.6523184818        3.0933232949        0.0077813326
 H         -2.8328811232        2.1108382955       -0.9034361577
 H         -2.8639085625        2.1001427922        0.8653876120
 H         -0.9041033086       -3.4351153666        0.0656676816
 H         -2.6001262778       -2.6260348787        0.0835722268
 H         -4.3403599300       -3.0555285198        0.5490389836
 H          1.3861251572       -2.9672795287       -0.0114888349
