  72
        -99.44153103
 N         -2.4666454263        3.6045354364        2.2326379033
 C         -2.2148732466        2.3763487633        1.7965632186
 C         -3.0560201180        2.0446172440        0.6111412916
 C         -3.5818183885        0.6272804787        0.5535553633
 C         -4.3788748245        0.2520148086       -0.5306952662
 C         -4.8935061911       -1.0277781524       -0.6380443625
 O         -5.6873040240       -1.4685234084       -1.6381833196
 C         -6.1320700420       -0.5559665432       -2.6137490996
 C         -4.5901370717       -1.9879142202        0.3640542604
 O         -5.1126643621       -3.2151717018        0.1671204085
 C         -4.8668231792       -4.2238331221        1.1191756978
 C         -3.8143915035       -1.6009719167        1.4443030736
 C         -3.3248777977       -0.3047521294        1.5423375732
 C         -2.2273351872        2.3680177916       -0.6752356664
 C         -1.3530037449        1.2275938302       -1.1929579448
 C         -0.3172325198        0.7369272046       -0.1773869562
 N          0.6115759061       -0.1862318233       -0.7948975801
 C          1.9929430125       -0.1059861222       -0.3735063937
 C          2.9514531215       -0.4103822873       -1.5391082016
 C          4.3796552709       -0.2677654053       -1.1026457323
 C          5.0743860844        0.9169622990       -1.2923065260
 C          6.3942093019        1.0415629898       -0.8859382247
 C          7.0477868314       -0.0176345858       -0.2725092019
 O          8.3297174897       -0.0162247895        0.1450381489
 C          9.1195569011        1.1300645187       -0.0680612957
 C          6.3388604054       -1.2310695709       -0.0545071197
 O          7.0427719418       -2.2071710857        0.5558340456
 C          6.4354700103       -3.4584811811        0.7698810537
 C          5.0216410038       -1.3318098728       -0.4730750690
 C          0.1070490820       -1.5358725877       -0.8733376643
 C         -4.2066853151        3.0899560544        0.7748898873
 C         -5.3467181774        2.5516794469        1.6330224786
 C         -3.5186039272        4.2593841018        1.4949114235
 H         -4.6031398190        0.9807339644       -1.2919129615
 H         -6.6827757955        0.2756412967       -2.1627111605
 H         -6.8011713953       -1.1214910572       -3.2589178571
 H         -5.3020456329       -0.1649178543       -3.2108145763
 H         -5.2817487065       -3.9618518396        2.0977826287
 H         -5.3703244189       -5.1113253621        0.7402158612
 H         -3.7958773538       -4.4289989154        1.2185352087
 H         -3.5906107227       -2.3021244197        2.2314481482
 H         -2.7507812846       -0.0369942492        2.4153734903
 H         -2.9209842456        2.6429192586       -1.4700479603
 H         -1.5994247127        3.2383318653       -0.4752031294
 H         -1.9858206179        0.3940254159       -1.4967270899
 H         -0.8198362092        1.5807955667       -2.0775676738
 H         -1.4149265332        1.7979294636        2.2121682717
 H          0.2393648143        1.5984870075        0.1995652311
 H          2.2030818037       -0.7994255810        0.4562902581
 H          2.2009419581        0.9074104594       -0.0238373268
 H          2.7329874481        0.2825840766       -2.3516812755
 H          2.7789919514       -1.4248968900       -1.8980443394
 H          4.5906139562        1.7522642149       -1.7750550929
 H          6.9111864486        1.9714246853       -1.0590681116
 H          8.7182173958        1.9986827786        0.4628379430
 H          9.2084565355        1.3624009141       -1.1337487811
 H         10.1022963508        0.8859830833        0.3310295438
 H          7.1956484020       -4.0755973048        1.2450466328
 H          5.5693805738       -3.3762319856        1.4344131609
 H          6.1298088064       -3.9221367537       -0.1730615973
 H          4.4773566973       -2.2513610084       -0.3254448878
 H         -0.8932773468       -1.5291645093       -1.3002587046
 H          0.0595835676       -2.0162948207        0.1170482388
 H          0.7490312053       -2.1329121129       -1.5178607767
 H         -4.6003578312        3.4015339632       -0.1923374753
 H         -4.9769976729        2.2239720051        2.6016468154
 H         -5.8333911679        1.7083756471        1.1528866247
 H         -6.0914595718        3.3287693502        1.7885241650
 H         -4.1928814957        4.7907549035        2.1683314122
 H         -3.0918537546        4.9822988274        0.7900666014
 H         -0.8423897247        0.2587835476        0.6636613080
 H         -1.9562115772        4.0647975862        2.9690437375
