  25
        -42.19788103
 C          3.3752277487        0.6213830627        0.0178416953
 N          2.2638573029       -0.2887202952        0.0033401334
 C          2.3246415999       -1.6325227866       -0.0131744400
 N          1.0614167131       -2.1463606586       -0.0267291495
 C          0.1828229379       -1.1020131491       -0.0189830046
 C          0.9305517916        0.0771881079        0.0001167702
 C          0.3451338297        1.3678769175        0.0069934107
 O          0.8919816669        2.4536510880        0.0192694736
 N         -1.1229050865        1.2941947493       -0.0195149547
 C         -1.7451176369        2.4942020215       -0.0653261664
 C         -1.8002268208        0.1169321824        0.0329662571
 O         -3.1417542411        0.0663978086        0.0607182239
 N         -1.1741799432       -1.1081164615       -0.0058429323
 C         -1.9177948547       -2.3502448635       -0.0127804328
 H          3.9860821583        0.4635906023        0.9079443528
 H          3.9987285079        0.4764691465       -0.8657456940
 H          2.9879480542        1.6393294761        0.0225670975
 H          3.2212890823       -2.2144019761       -0.0137191662
 H         -1.1139955811        3.3595853590       -0.0640021759
 H         -2.8080179378        2.5807461095       -0.1667463806
 H         -3.5443477747        0.9136590207        0.2924870648
 H         -1.6332372371       -2.9615879626        0.8451667870
 H         -1.7216971759       -2.8973817442       -0.9364064196
 H         -2.9797580659       -2.1296450861        0.0456028247
 H          0.8297180795       -3.1268381352       -0.0356575995
