  72
        -99.32348299
 N         -0.8500373797        4.4707113628        2.1784025181
 C         -1.5365519428        3.9370335344        1.3396524034
 C         -2.3013009959        3.5813672501        0.3386335855
 C         -4.0733983575        0.0642771415        1.0273699199
 C         -4.8441806622       -0.2250148344       -0.0886387686
 C         -5.0012323144       -1.5372187083       -0.5124467199
 O         -5.7314972099       -1.9363879100       -1.5708835387
 C         -6.4599534042       -0.9794435888       -2.3042289136
 C         -4.3607340230       -2.5790921669        0.2155272065
 O         -4.5847801134       -3.8228480163       -0.2535216523
 C         -4.0886331880       -4.9287181083        0.4630651920
 C         -3.5858745591       -2.2619441869        1.3216770618
 C         -3.4434711126       -0.9412787770        1.7295998774
 C         -1.6937426811        3.1817628176       -0.9807512238
 C         -1.4291411381        1.6723363708       -1.0698787571
 C         -0.4106016714        1.2142812966       -0.0153155782
 N          0.3318878889        0.0608289980       -0.4637742263
 C          1.7167302688       -0.0431061725       -0.0714391631
 C          2.5944148795       -0.5061095116       -1.2533504456
 C          4.0481600393       -0.4131606924       -0.8987144725
 C          4.7304162718        0.7895269344       -1.0324955797
 C          6.0679652886        0.8937628745       -0.6895780490
 C          6.7586617702       -0.2068720140       -0.1982741480
 O          8.0548432847       -0.2262004973        0.1586103162
 C          8.8273179257        0.9443800462        0.0207983365
 C          6.0680342033       -1.4432656770       -0.0492760446
 O          6.8106087639       -2.4570826996        0.4341968819
 C          6.2284948942       -3.7304939708        0.5822217125
 C          4.7279040756       -1.5206680773       -0.3999130924
 C         -0.4019003765       -1.1769813634       -0.4226585887
 C         -3.8065098385        3.5620879019        0.4874943059
 C         -4.2717715136        2.8783752177        1.7164236948
 C         -4.3343993531        5.0201624596        0.4913125656
 H         -5.3343887170        0.5786245509       -0.6148421073
 H         -7.1855546590       -0.4582416362       -1.6723274209
 H         -6.9888362369       -1.5401310776       -3.0723336594
 H         -5.7978718515       -0.2496936109       -2.7809114313
 H         -4.4655714514       -4.9419428058        1.4902641742
 H         -4.4536008947       -5.8069761601       -0.0659438798
 H         -2.9941839337       -4.9422182413        0.4748892279
 H         -3.0981407866       -3.0424003857        1.8828346534
 H         -2.8513808815       -0.7153038526        2.6028501314
 H         -2.3774087387        3.4705731362       -1.7810618898
 H         -0.7537836279        3.7162868452       -1.1301906628
 H         -2.3657469589        1.1254213051       -0.9512045881
 H         -1.0236187308        1.4498583313       -2.0578789527
 H         -0.9320254790        1.0079610277        0.9328490550
 H          0.2966347659        2.0284266763        0.1572772391
 H          1.8465209095       -0.7417636034        0.7678546089
 H          2.0748881942        0.9366217292        0.2504445362
 H          2.3765851689        0.1381024416       -2.1058813111
 H          2.3379962168       -1.5305074688       -1.5220182215
 H          4.2161787956        1.6556442422       -1.4202359032
 H          6.5708422643        1.8390171378       -0.8131095486
 H          8.4472546066        1.7512293830        0.6546911333
 H          8.8612712455        1.2815226778       -1.0193737342
 H          9.8299171602        0.6723751815        0.3451794571
 H          7.0201184541       -4.3708129160        0.9666340165
 H          5.3992900285       -3.7119207854        1.2964572125
 H          5.8774203163       -4.1236816900       -0.3767076235
 H          4.1976295101       -2.4544637132       -0.2980411971
 H         -1.3534809508       -1.0579790218       -0.9355705949
 H         -0.6058767474       -1.5011372519        0.6089599585
 H          0.1677992185       -1.9563528532       -0.9240521474
 H         -4.2343669222        3.0705352257       -0.3944703994
 H         -3.6659992194        2.9270081193        2.6049328637
 H         -4.0037556994        1.1209687436        1.3581427410
 H         -5.3348249786        2.7879825277        1.8646401140
 H         -3.9502731267        5.5527318009        1.3572450800
 H         -4.0038449641        5.5319823553       -0.4089591755
 H         -5.4206334968        5.0280364790        0.5227393974
 H         -0.3905412633        4.0020913656        2.9457060866
