  25
        -42.16761946
 C          2.8595578875        0.8415788807       -0.5181600845
 N          2.0047117387       -0.2648639297       -0.1898321957
 C          2.3692479417       -1.5396586891       -0.2103237715
 N          1.3321463578       -2.3103456449        0.1334592269
 C          0.2200047658       -1.5280734231        0.4233990034
 C          0.6515980332       -0.1758705164        0.1449449587
 C          0.0637479704        1.1103497854        0.2885525875
 O          0.6105952963        2.1512775094        0.5743492684
 N         -1.4192192891        1.2315807921       -0.0816567378
 C         -2.1910197666        2.1437556837        0.7628554506
 C         -1.7254229434        0.9852635920       -1.2816686833
 O         -1.7578637509        0.5631769480       -2.3603335504
 N         -0.8043882837       -2.1124062251        0.9317301967
 C         -2.0008127117       -1.5187938970        1.3874394425
 H          2.9017544610        1.5459189819        0.3139993932
 H          3.8587853231        0.4719799831       -0.7356734864
 H          2.4755330267        1.3752236741       -1.3893351302
 H          3.3464355618       -1.8972753603       -0.4703575874
 H         -1.6394919870        3.0773899265        0.8787284429
 H         -3.1598384496        2.3408324470        0.3118340706
 H         -2.3240439236        1.6884393206        1.7429029733
 H         -2.4766231569       -2.2317352226        2.0636330578
 H         -2.6906335455       -1.3326893761        0.5569234116
 H         -1.8236613725       -0.5812944631        1.9269465908
 H          1.3305599777       -3.3139015979        0.2395945221
