72
 energy: 61.764273962429 xtb: 6.6.1 (8d0f1dd)
N           -1.56827860120531        3.07139481785373        2.23929943479941
C           -1.55856358169548        2.36200097923437        1.20721052835908
C           -2.71888993883606        2.18638591473124        0.25906144078391
C           -3.22133707112289        0.74819633573729        0.35662688728022
C           -4.13265323906356        0.21262334127427       -0.55125231902544
C           -4.62040348637979       -1.09623420976987       -0.47306104099388
O           -5.55843475273129       -1.52990981562403       -1.39361373224928
C           -6.15170466242851       -0.64568336072118       -2.32418235118029
C           -4.15098375809641       -2.04664171346443        0.55708388571507
O           -4.47555080600378       -3.34697547389458        0.63700234628762
C           -4.87503046972068       -5.05235798985540        1.81049551120623
C           -3.23854659814561       -1.43020268103613        1.42436640042443
C           -2.79913528022760       -0.11701859238184        1.34837995093380
C           -2.14744844135797        2.46486701922814       -1.16323572811036
C           -1.25150789235054        1.34806952114974       -1.73667225092328
C            0.04383289732803        1.23679721591516       -1.03224154467833
N            0.57955185884017        0.05517472686131       -0.64483802117466
C            1.95068012027979       -0.01817230121913       -0.19887508745768
C            2.90195073510541       -0.49922189311067       -1.31733195388960
C            4.32981379154445       -0.42470346120946       -0.85870407610356
C            5.06338330448172        0.73318211526307       -1.02680940727711
C            6.37626004744466        0.81678142373909       -0.58021328947404
C            6.97101850896710       -0.25780304905844        0.05615493580570
O            8.25016051839806       -0.29196307251326        0.52728348505880
C            9.05772717046469        0.84533698748913        0.34853389120806
C            6.22451189891692       -1.44418263383936        0.24827518867913
O            6.89181065436540       -2.44750220444875        0.88369720146453
C            6.23629703408947       -3.67127957939037        1.08796992209363
C            4.92051483740792       -1.50802867411535       -0.20641671421859
C           -0.11771180682962       -1.21013401562564       -0.76237992173549
C           -3.88863931960999        3.16985676867991        0.54485295825303
C           -4.53043708559892        2.87712049587018        1.89962044914664
C           -3.46998084734408        4.63973907546882        0.48680348556227
H           -4.48224341737043        0.88610062751313       -1.32657721464945
H           -6.65240120490352        0.20951100837865       -1.85205249150510
H           -6.90819608400309       -1.23391124464608       -2.85067450961616
H           -5.43542406310734       -0.26299559173977       -3.06405952221525
H           -5.21419822152223       -4.78502054328967        2.78567548197400
H           -5.61704931363717       -5.54189223342882        1.19880696139826
H           -3.91257765501218       -5.50929506131440        1.78788578686981
H           -2.86813509460735       -2.05711348439148        2.21705102720248
H           -2.10352132690765        0.23042611406457        2.09160965350283
H           -2.97909991112559        2.61357242552694       -1.85578577542290
H           -1.56309607955676        3.38909323950908       -1.13202259316070
H           -1.78618661960229        0.40218167895431       -1.70682797551478
H           -1.06647698858363        1.60119416689471       -2.79538662947026
H           -0.68204571288165        1.79049146025382        0.84487663041863
H            0.71545172203821        2.07677436054010       -1.01477528978429
H            2.03804444641176       -0.70486493720056        0.65250249905917
H            2.26489846576619        0.97172937803586        0.13249046417422
H            2.75275614202426        0.13908996026096       -2.18650030698416
H            2.64695073943265       -1.52557894231038       -1.58686849844638
H            4.62206666395298        1.58159612298843       -1.52793408398793
H            6.92599772078959        1.73071912489413       -0.74456567023142
H            8.64525089691151        1.72186197912427        0.85978502929809
H            9.19909891446526        1.07887567878854       -0.71226955686850
H           10.01895359709767        0.58869940657039        0.79223249137627
H            6.96618550463049       -4.31130906130515        1.58248079353541
H            5.35996973477366       -3.55803585237963        1.73491122266454
H            5.93459383266693       -4.12971243338320        0.14100790185941
H            4.34134088673280       -2.40656678909465       -0.06243208617159
H           -0.29588497772062       -1.47793078639726       -1.80797565153770
H           -1.07720256705930       -1.16565982975197       -0.24136199576581
H            0.46614372869563       -2.01216866008435       -0.30587118895250
H           -4.64523086500617        3.00652957619505       -0.23273704752411
H           -3.80505581192767        3.05221052337036        2.68625823678414
H           -4.86871137670389        1.84598680333980        1.94931691658949
H           -5.38508961612933        3.53287877710430        2.05541297178123
H           -2.70329600884323        4.84609765722506        1.22493940379560
H           -3.10072912264963        4.92105167169487       -0.49740015848757
H           -4.32885897313034        5.26847613458120        0.71209095895927
H           -0.68633539053527        3.13033829731508        2.74034553139953
