72
 energy: 70.117151120723 xtb: 6.6.1 (8d0f1dd)
N           -1.58871990763959        3.31725935879401        2.18378365727207
C           -1.54304754829723        2.52586025545392        1.21639187586551
C           -2.67957938540772        2.31059629048698        0.25773941733751
C           -3.15029188526803        0.87267710989644        0.34367913556230
C           -4.05410545207334        0.36145310533149       -0.59749494396263
C           -4.48778215483734       -0.94420078479022       -0.56308421153855
O           -5.38067806913282       -1.48113237369736       -1.44547909007620
C           -5.99238150081878       -0.64712021818928       -2.38799850855998
C           -3.99593566253375       -1.85717409014716        0.45794790899901
O           -4.26742376901566       -3.06990740482834        0.52021898653119
C           -5.12039581281368       -6.05682092471229        2.23572259715556
C           -3.12260819386266       -1.26517170110075        1.42309336593082
C           -2.72109673595177        0.03935048467196        1.37309793037642
C           -2.08170263378985        2.60949838321594       -1.14288019635052
C           -1.22860050280486        1.47623942747050       -1.74348855031115
C            0.06818236847677        1.26764472125362       -1.06724807779113
N            0.55755832029247        0.09526946342461       -0.68116101634583
C            1.91623519753172       -0.00118258856658       -0.21237612236493
C            2.87167687343901       -0.46728325072009       -1.32904154905501
C            4.29722834893064       -0.41166332495315       -0.85596039346429
C            5.04741745321978        0.73678731870083       -1.01840025612799
C            6.36027479084129        0.79843692746293       -0.57063016391818
C            6.94097765893619       -0.29291053371135        0.04910583154224
O            8.21373848307507       -0.34976408598169        0.52110142595938
C            9.04297812940025        0.77545086869612        0.37106186372764
C            6.18030972789201       -1.47377969350669        0.22333844752204
O            6.83414632933690       -2.49384115984110        0.83814143539677
C            6.16716766974341       -3.71666674370971        1.02755645766061
C            4.87340127704005       -1.51435170858862       -0.22665647002614
C           -0.17844694954386       -1.13244328231526       -0.86169470567127
C           -3.88816487970832        3.25724435486686        0.51437371032485
C           -4.55121302150710        2.96641452578501        1.85862992914337
C           -3.53039134927086        4.74067779226994        0.43031297426718
H           -4.41878755385576        1.02387486355489       -1.37265578673605
H           -6.52972298670063        0.18468882576153       -1.91511618824818
H           -6.70337177735310       -1.28112501343005       -2.91367800314135
H           -5.27220064051442       -0.24455793916409       -3.11224178315609
H           -5.52862292521673       -5.79308025192584        3.17225101661557
H           -5.75898318133537       -6.05999882032954        1.40274994079710
H           -4.19717971502994       -6.56042135184310        2.16888834045251
H           -2.78779152874160       -1.92186108186595        2.21063068043526
H           -2.07249148814871        0.41577425759921        2.15084235892882
H           -2.90235101081751        2.80639170604681       -1.83307286128781
H           -1.47924412204718        3.52068935933925       -1.07954796114323
H           -1.81744997552774        0.56139987025082       -1.76915609533400
H           -1.01422140089271        1.77227197298614       -2.78190794047985
H           -0.64902486526998        1.93219787562272        0.94726538562701
H            0.72358961104612        2.11792721148460       -0.95472002473973
H            1.95846210256413       -0.70669128052638        0.61997345532826
H            2.24719567406581        0.97505454307947        0.14747126044350
H            2.74401791229868        0.18992850391355       -2.19177073087145
H            2.61207731331383       -1.48245589707751       -1.63105689001788
H            4.61832310007102        1.59842718923662       -1.50803719589057
H            6.92115890606191        1.70687811293474       -0.71971761341417
H            8.64225286484192        1.64852592621043        0.89680822945077
H            9.19842218688768        1.02610243128169       -0.68373906362421
H            9.99576162831671        0.49459266146880        0.81705380662377
H            6.89151166019701       -4.36949580562831        1.51205386886718
H            5.29238591869467       -3.60625667972922        1.67716705467483
H            5.86182018015726       -4.16259183975090        0.07497134476360
H            4.28786070092195       -2.41293880714401       -0.10739362133177
H           -0.35681724193312       -1.32865982223327       -1.92112267325893
H           -1.13941639982435       -1.09734790420545       -0.34009364713443
H            0.40196318166336       -1.95367959250370       -0.45185990381607
H           -4.61707815177986        3.04403862595352       -0.27495299547351
H           -3.86219749657141        3.18552016900116        2.66735145002664
H           -4.85757752758193        1.92622195194470        1.92204720342186
H           -5.43200626111311        3.59436925883468        1.97526808474856
H           -2.79403063004627        4.99678933708008        1.18485336947985
H           -3.15009009580458        5.01771842321506       -0.55034919287797
H           -4.42295900798120        5.33423082711395        0.61584215116869
H           -0.74913372045833        3.39795718936006        2.75055759936171
