72
 energy: 28.877287845814 xtb: 6.6.1 (8d0f1dd)
N           -1.54762125171990        2.99554902694255        2.23997379528453
C           -1.55414844183299        2.29666723035551        1.19567806215595
C           -2.72801760276662        2.14805817425152        0.25605934251548
C           -3.25226873778163        0.71464890134099        0.35005683093989
C           -4.18415634338233        0.19962424875902       -0.54773500382676
C           -4.68495913560319       -1.11487072439362       -0.47400262006706
O           -5.62860145068494       -1.53185520210416       -1.38340121068716
C           -6.21523176435380       -0.63758784027172       -2.31285162485497
C           -4.23139801790052       -2.05480357114558        0.56125293217583
O           -4.68392316786560       -3.44063338931755        0.66103943507301
C           -4.78625355318009       -4.66974078061703        1.63375560355697
C           -3.29791354808879       -1.47739759787586        1.40767753042890
C           -2.83011928709591       -0.16445875686884        1.32902134030679
C           -2.16449799677798        2.41868603856598       -1.17021568355318
C           -1.25445591368111        1.30415795352162       -1.71999776204199
C            0.01694688278345        1.23574726457613       -0.96412355850850
N            0.59687249613534        0.02259163689975       -0.61656250852420
C            1.96386197384574       -0.02900152767041       -0.19093586877648
C            2.91734332292268       -0.51172357029431       -1.31128719096184
C            4.34042048082799       -0.43020243145434       -0.86043869035462
C            5.06848118712783        0.73206198049310       -1.03209141656528
C            6.37949988006606        0.82420065447570       -0.58630396691321
C            6.97853228706092       -0.24434717533391        0.05671189854673
O            8.26099455808191       -0.27085222544940        0.52840516288518
C            9.06143420128343        0.86781799500711        0.34045124241553
C            6.23713347575976       -1.43093544617939        0.25686994727985
O            6.91033797037957       -2.43122264969927        0.89753853951143
C            6.25854709281218       -3.65540751659669        1.10596354537178
C            4.93437217944856       -1.50459873695593       -0.19633761631441
C           -0.09852295172439       -1.23545531932031       -0.72514421241723
C           -3.88500003811439        3.14326412518592        0.55510253566404
C           -4.52149698976963        2.84983082567368        1.91217541329798
C           -3.45028495061086        4.60906815655859        0.50357614838740
H           -4.53062515605600        0.88785414020621       -1.31577459955933
H           -6.70327394678807        0.22061085993651       -1.83500868343391
H           -6.97835631014528       -1.22054784023846       -2.83401779328150
H           -5.49667996696913       -0.26505658065180       -3.05386212983771
H           -5.11234475613233       -4.46840686108546        2.65816828498777
H           -5.52583086434284       -5.34738457414077        1.18026044866929
H           -3.82836359794721       -5.18794329678751        1.67128136721786
H           -2.91580282895010       -2.10829747215864        2.19015438913536
H           -2.11747411469824        0.16746264273417        2.06419101105969
H           -2.99592995617160        2.55356527834445       -1.86540351187216
H           -1.58800184848541        3.34795471684902       -1.14988862686210
H           -1.78607353811356        0.35541807216876       -1.68218529131025
H           -1.05811409167783        1.53477488875654       -2.78244709602898
H           -0.68310528667570        1.74843060462367        0.78763016769342
H            0.69971450284672        2.06011776666041       -1.00292216705737
H            2.06602950315187       -0.70156751786171        0.67216973013076
H            2.27263204304913        0.97115932929329        0.12127858843204
H            2.75550541069988        0.12050552973163       -2.18229228157540
H            2.65665657244601       -1.53970541212671       -1.56838310151168
H            4.62160754189261        1.57544873311661       -1.53724176952675
H            6.92600781051114        1.73873939966182       -0.75684334868887
H            8.64638435139909        1.74595967740864        0.84735885434311
H            9.19925301855388        1.09574065106610       -0.72226313166826
H           10.02456759984724        0.61758294747886        0.78342850872336
H            6.99059642262137       -4.29138765100773        1.60261653464940
H            5.38130556070029       -3.54354302095709        1.75243639123710
H            5.95768508352244       -4.11949265977680        0.16098633784467
H            4.35786608207841       -2.40430035029993       -0.04718681464172
H           -0.27724781803621       -1.52097049775654       -1.76823570253312
H           -1.05980993411830       -1.18690404849444       -0.20629390051027
H            0.49150695923560       -2.02550390456463       -0.25649230808855
H           -4.64842044017847        2.99383603465768       -0.21877247421055
H           -3.78975931046303        3.01212834790270        2.69597000900396
H           -4.87057717286366        1.82164456004136        1.95824473441418
H           -5.36884740931667        3.51278186432444        2.07674628569751
H           -2.67523987494755        4.80174183039374        1.23691190218130
H           -3.08501423652706        4.89219897448065       -0.48134886784525
H           -4.30071434013533        5.24599253109784        0.73899933311926
H           -0.66025103855775        3.03105164584678        2.73452106648644
