72
 energy: 2.303447816567 xtb: 6.6.1 (8d0f1dd)
N           -1.51925592827703        2.88244717768021        2.24253723099226
C           -1.55216324716188        2.22062614054355        1.17622859741558
C           -2.73631631997158        2.10343060461020        0.25110704514936
C           -3.28447566402235        0.68165445678807        0.33911639044168
C           -4.24537894373307        0.22206519517357       -0.56019885960728
C           -4.76637229492082       -1.07099500032432       -0.49988677618331
O           -5.72494239613139       -1.51272149651915       -1.37214982503596
C           -6.30564420657706       -0.62486182573599       -2.30292993591813
C           -4.31245525609389       -2.00290567648778        0.50181791859917
O           -4.84894004267972       -3.29649809131805        0.53301939101325
C           -4.72671271892218       -4.37575512601744        1.51066315136077
C           -3.35778910955821       -1.51077876593110        1.37421598920519
C           -2.85879872506116       -0.21183573279403        1.30417114453086
C           -2.17870223616577        2.35893772449447       -1.17762795416712
C           -1.25698681318482        1.23914164767538       -1.69348951830410
C            0.00986718579746        1.17977426102373       -0.92045693297337
N            0.62038080899458       -0.01788816428671       -0.59175270682325
C            1.98646954782659       -0.03433315991382       -0.17474239198095
C            2.92965145312099       -0.52707764021919       -1.29577001518983
C            4.35212145335045       -0.43248640763140       -0.84981371803724
C            5.07307322680275        0.73153048257262       -1.03668644960334
C            6.38359781839672        0.83349966149575       -0.59409245179239
C            6.98830902953776       -0.22663859998015        0.05727872863695
O            8.26924173323233       -0.24137663812737        0.52816756012672
C            9.06552650638308        0.89799536075465        0.32996284541029
C            6.25408576066245       -1.41576360739209        0.26877423937440
O            6.93227504453315       -2.40788698670391        0.91401090188057
C            6.28721499780285       -3.63531410638962        1.12878663273388
C            4.95075933019253       -1.49943338453848       -0.17980892045411
C           -0.07476225920744       -1.27153046419167       -0.67382015172942
C           -3.87720628514469        3.10953537960184        0.56858359780828
C           -4.50816383727828        2.81163920976858        1.92730218754682
C           -3.42263301198630        4.56847236965750        0.52609125185119
H           -4.59458823655066        0.91583460559145       -1.31573049527887
H           -6.77719722123114        0.23946512545057       -1.82108759948867
H           -7.07602617933423       -1.20411641579234       -2.81352061202371
H           -5.58293587011455       -0.26848271203542       -3.04673264294546
H           -4.99958056907482       -4.09195451065943        2.53328532442724
H           -5.41794839006940       -5.15817521564833        1.18568973041259
H           -3.71577288803513       -4.79439969625144        1.52067851541741
H           -2.99227497429527       -2.16578144846637        2.14749924837641
H           -2.13083939233689        0.09820539005662        2.03582179498915
H           -3.01026184219124        2.46917671364597       -1.87624672814251
H           -1.61800278918811        3.29665705251179       -1.17634060385858
H           -1.79344552578295        0.29263709710755       -1.65330930195483
H           -1.03384138254268        1.45201202689070       -2.75148451182224
H           -0.68301538874468        1.69887710597877        0.71387707013232
H            0.67104956069758        2.02400445234359       -0.97088612045298
H            2.09516177906032       -0.68526693486061        0.70151060516905
H            2.28720650525893        0.97667105488781        0.11375071614247
H            2.76101513588384        0.09406015891088       -2.17521148625766
H            2.66916996513941       -1.55775910931274       -1.54117255449977
H            4.62147955401372        1.56852120280647       -1.54882570976902
H            6.92552768759412        1.74855831093583       -0.77313416120180
H            8.64843715241260        1.77784094111797        0.83204864589193
H            9.19981538465165        1.11827139317727       -0.73470982088835
H           10.03054121625615        0.65462837273080        0.77212229707651
H            7.02270068375744       -4.26488291033099        1.62790739176974
H            5.40953341388576       -3.52546180282863        1.77511463561292
H            5.98847857909152       -4.10637416244841        0.18632877286290
H            4.37959368526690       -2.40206113852125       -0.02654715386713
H           -0.25034144799212       -1.57341602951907       -1.71229616993489
H           -1.03837026950926       -1.21294764133296       -0.15902454616627
H            0.52431415132448       -2.04121943339127       -0.18899167052683
H           -4.64695389462274        2.97455906468152       -0.20092760700724
H           -3.77236978866389        2.95596806367761        2.71118182867087
H           -4.87222904357967        1.78821045629402        1.96742584774703
H           -5.34537880053618        3.48436982351951        2.10133731898800
H           -2.63789374121635        4.74341229211280        1.25448696399194
H           -3.06297552021317        4.85422712110490       -0.45986567582840
H           -4.26285430955490        5.21364823306345        0.77376896235935
H           -0.63030603750781        2.89809280728182        2.73729900166218
