72
 energy: 68.358502342520 xtb: 6.6.1 (8d0f1dd)
N           -1.58163906390407        3.12932822795934        2.23548435016136
C           -1.56260555652801        2.40229054283105        1.21645009251161
C           -2.71257603900318        2.21133049528059        0.26071901265622
C           -3.20059881395274        0.77030879907116        0.36041053829566
C           -4.09773713100079        0.22400548111976       -0.55570786186612
C           -4.57519100404556       -1.08205702152202       -0.48029288774396
O           -5.51178807125703       -1.52608301106872       -1.39749133394836
C           -6.10997592533538       -0.65048165458540       -2.33190382188620
C           -4.09151999486857       -2.03430431479030        0.54631577313264
O           -4.37570270481360       -3.28562268817525        0.64708035543968
C           -4.94010286114616       -5.28877716403427        1.90468896591473
C           -3.19507305677394       -1.40043480789862        1.43729214675017
C           -2.77699044587247       -0.08816976396536        1.36246260264016
C           -2.13531166564886        2.49461811205432       -1.15872991505908
C           -1.24575882485029        1.37622166993338       -1.74351221257039
C            0.05859912396707        1.23451497587160       -1.05640424333370
N            0.57208025595696        0.06688337358082       -0.65931061188925
C            1.94272278841529       -0.01231382248364       -0.20334251567951
C            2.89361122745300       -0.49145963920709       -1.32099489608563
C            4.32246183393675       -0.42137342272766       -0.85699800727262
C            5.06024400681340        0.73388902175122       -1.02325773067775
C            6.37402891230058        0.81156992533689       -0.57683077176103
C            6.96582080499820       -0.26696830642770        0.05535554554955
O            8.24265223115465       -0.30457424089793        0.52644350523159
C            9.05508453503728        0.83079080155360        0.35365781616573
C            6.21633132622779       -1.45291620164759        0.24303654780915
O            6.87964649740013       -2.45797509507553        0.87506994612571
C            6.22184601068796       -3.68155898258728        1.07600303365493
C            4.91153572285189       -1.51046595687761       -0.21204078039078
C           -0.12961657228918       -1.19521079455186       -0.78596365541026
C           -3.89047827342202        3.18784990514892        0.53785695863333
C           -4.53573024300760        2.89519302067080        1.89094227348650
C           -3.48315490439531        4.66077214167700        0.47569017219580
H           -4.44931607552321        0.88697790177288       -1.33647008367803
H           -6.61820304337561        0.20186756948406       -1.86274194096816
H           -6.86202434939865       -1.24286522947702       -2.86048600353484
H           -5.39484189322653       -0.26264393301137       -3.07066305677151
H           -5.28306414181858       -4.99436868354128        2.86079278442216
H           -5.67305039953608       -5.66872720668918        1.21851041210965
H           -3.97527705706679       -5.71972028070526        1.86242021449520
H           -2.83546055055379       -2.02538785193100        2.23514440388774
H           -2.09522056209396        0.27171202321329        2.11151058792905
H           -2.96652999433510        2.65406942713714       -1.85014868766536
H           -1.54586639816530        3.41525774161713       -1.11971169034559
H           -1.78758180994292        0.43428889493827       -1.72315575485862
H           -1.06576263714464        1.64709259952089       -2.79827585752653
H           -0.68117235229098        1.81873096333365        0.88122360398510
H            0.72963751142410        2.08121041215138       -1.02292207541158
H            2.02071952782784       -0.70568491376219        0.64212993876353
H            2.26260384695556        0.97257482696991        0.14019665815273
H            2.75180668230686        0.15122039159217       -2.18882146737737
H            2.64063892636442       -1.51619634066669       -1.59891013723947
H            4.62293315689781        1.58568570043397       -1.52214640434808
H            6.92591767483488        1.72510948957582       -0.73671822637553
H            8.64458646743165        1.70631490654595        0.86787975638440
H            9.19896594479609        1.06791963022976       -0.70589314272757
H           10.01500331510513        0.56967118749795        0.79777946666340
H            6.95026858512790       -4.32435832304073        1.56897341035049
H            5.34591574673056       -3.56789334892776        1.72323222605632
H            5.91952789583027       -4.13647024768070        0.12770570860056
H            4.33057565249546       -2.40847595908746       -0.07270048866604
H           -0.30775949083678       -1.44932316017245       -1.83411289665314
H           -1.08892915643532       -1.15247432600250       -0.26427804132250
H            0.45131040475154       -2.00329593797492       -0.33776145375159
H           -4.64207818292445        3.01592126003909       -0.24254498163529
H           -3.81555735699924        3.07885075946910        2.68039697129910
H           -4.86686143948948        1.86200985274203        1.94301527823283
H           -5.39536260002555        3.54582650427296        2.04052825432255
H           -2.72214236377031        4.87690405509610        1.21687366583947
H           -3.11185904591746        4.94155874839830       -0.50789698923550
H           -4.34817743210882        5.28334432318296        0.69404610283432
H           -0.70722974627798        3.19349221420428        2.74984666437715
