72
 energy: 68.574825337441 xtb: 6.6.1 (8d0f1dd)
N           -1.57496500863843        3.28642647509648        2.20500079273028
C           -1.54237043548781        2.51705551861323        1.21853529453435
C           -2.67630821864074        2.31947089231994        0.25411508886528
C           -3.15844239406545        0.88113427985638        0.33672487031406
C           -4.06397516548239        0.38986416870087       -0.61375588914430
C           -4.50658462511982       -0.91122858218198       -0.58110181953445
O           -5.40389018966142       -1.45039353376842       -1.45346537241011
C           -6.02842808846952       -0.62751737076375       -2.39783226978309
C           -4.02453176908776       -1.85723122510561        0.42392762165371
O           -4.35469385471376       -3.05654635981581        0.42608522961748
C           -5.13211981123262       -6.23464804356276        2.34667733474392
C           -3.14346257987600       -1.28680261619352        1.39575655471257
C           -2.73793225383135        0.02418210435652        1.35227846841603
C           -2.08356306675127        2.60340000153186       -1.15454217335911
C           -1.23120520223579        1.46298571868208       -1.74336392442075
C            0.06242058875013        1.26508506238029       -1.05537413234119
N            0.56475866262462        0.08927797783532       -0.68406472718498
C            1.92395602583109       -0.00275132563361       -0.21131611943032
C            2.87841611958176       -0.47304564248377       -1.32643209385990
C            4.30440988597091       -0.41482602776483       -0.85647354931529
C            5.05068924227820        0.73603955264969       -1.01960723186573
C            6.36344717955788        0.80134623382650       -0.57254979160156
C            6.94677994720042       -0.28680675718214        0.05083568293054
O            8.21985134773795       -0.33916857001346        0.52158359983533
C            9.04590040726187        0.78758766263285        0.36636424690155
C            6.18822967258635       -1.46891403677159        0.22945973597064
O            6.84408486165867       -2.48521632619268        0.84723828975547
C            6.17986176311419       -3.70907799160087        1.03922479584535
C            4.88187982744733       -1.51390149033877       -0.22194524650487
C           -0.16455069718242       -1.14553451677113       -0.84759502195059
C           -3.88451753640385        3.26304495782428        0.51596390495447
C           -4.54207964112993        2.96099015311927        1.86152773938547
C           -3.52406011748390        4.74488315257981        0.43724248093975
H           -4.42526331810109        1.05870139337356       -1.38245034688599
H           -6.56029402759344        0.20614225179209       -1.92460875846639
H           -6.74657336656078       -1.26449160584837       -2.91327263394678
H           -5.31357135849261       -0.22942321073072       -3.12910369659787
H           -5.51171172708793       -5.94448555646038        3.30266882471273
H           -5.66432269060936       -5.97507439051580        1.45673987764505
H           -4.16907924082075       -6.69224588136102        2.27771123270958
H           -2.80666629370251       -1.93992745178547        2.18774334660275
H           -2.08793658881793        0.40095053630487        2.13168890662170
H           -2.90524308183902        2.79010893195294       -1.84625782646793
H           -1.47876733326549        3.51107611270542       -1.10567600739486
H           -1.81616286415076        0.54533756524573       -1.75833201528145
H           -1.01311976122273        1.74388093867274       -2.78319718313394
H           -0.65084508648007        1.92982092735054        0.92268037217296
H            0.71652195270504        2.11912885388149       -0.95861774204567
H            1.96595542088272       -0.70230566138570        0.62759346324797
H            2.25248145521860        0.97643773335975        0.14474533639393
H            2.74840503807186        0.18134646957580       -2.19082879587697
H            2.61847712916436       -1.49009786717586       -1.62261830209228
H            4.61972551446003        1.59558565218394       -1.51134907969944
H            6.92274048521826        1.71056864292073       -0.72445402557085
H            8.64288820235667        1.66094865390422        0.88983278853191
H            9.19882202794663        1.03495377785852       -0.68942691085398
H            9.99990045352051        0.51070665377501        0.81221293603566
H            6.90583133335330       -4.35889891674571        1.52532600625232
H            5.30475519910846       -3.59837252492810        1.68823670297265
H            5.87453546565957       -4.15787434503497        0.08818399128503
H            4.29630350103528       -2.41184480860860       -0.09793547113075
H           -0.34894098322304       -1.35812557252785       -1.90287551768163
H           -1.12305025039393       -1.10062382111990       -0.32367157287929
H            0.41657249543969       -1.96168593617282       -0.42690507227280
H           -4.61963790582755        3.05102593433497       -0.26944051718200
H           -3.84716501619333        3.16596516533841        2.66908707803918
H           -4.84986478352710        1.91979090652633        1.91747015174805
H           -5.42172950733482        3.58785803312693        1.98910282846854
H           -2.78042472635028        4.98823155007704        1.18941743065944
H           -3.14330599625762        5.01671378918815       -0.54438816819962
H           -4.41352595524519        5.34085732543607        0.62791506219782
H           -0.73181949428450        3.34946709259688        2.77041726609087
