72
 energy: 70.898648571171 xtb: 6.6.1 (8d0f1dd)
N           -1.58684830331497        3.21606084593333        2.21394692961204
C           -1.57012730431147        2.44980572812776        1.22759904825986
C           -2.70244335110535        2.24808675522339        0.26044962637247
C           -3.17020631295493        0.80438038762219        0.35936792011155
C           -4.05989225354181        0.26738892788567       -0.57225613116944
C           -4.51810591856203       -1.03628625576378       -0.50457549732538
O           -5.44409829697366       -1.52055370033521       -1.40389359581299
C           -6.05054502221206       -0.65883541072342       -2.34354094169125
C           -4.03261987070921       -1.96834545317157        0.52375435963117
O           -4.32669255484909       -3.18162096201176        0.63719417588717
C           -5.01915998537244       -5.59190546122143        2.03222155810049
C           -3.13883870139928       -1.35327757144919        1.44608187921616
C           -2.74177102384642       -0.04277723828042        1.37491321577402
C           -2.11587469902237        2.53947387197347       -1.15168741036453
C           -1.23603299045419        1.42106955488320       -1.75002329995836
C            0.08053597418696        1.24417052947757       -1.09705616868248
N            0.55923463262581        0.08532013300162       -0.67164336150005
C            1.92899540549285       -0.00242384995016       -0.20801801718092
C            2.88144373722092       -0.47849521246625       -1.32480407093467
C            4.31039767437753       -0.41646498127775       -0.85342988736789
C            5.05481534570229        0.73468987882680       -1.01861685838149
C            6.36943024185767        0.80380640593369       -0.57296685935528
C            6.95880010060235       -0.27984559164587        0.05355802790115
O            8.23141248421792       -0.32211235343702        0.52496782736115
C            9.05138157303236        0.80936828593665        0.36089541607139
C            6.20314016125544       -1.46396610609589        0.23533296901200
O            6.86100364167911       -2.47221543847154        0.86177776028729
C            6.20027515621848       -3.69616428425832        1.05801681578301
C            4.89723015822436       -1.51322472265298       -0.21911566008198
C           -0.14816630831587       -1.16980075589158       -0.81944175617664
C           -3.89307568347502        3.21290000435710        0.52777028177910
C           -4.54276064580949        2.92057277669330        1.87830421524543
C           -3.50194366952920        4.68973874691144        0.45873830505359
H           -4.42082732508468        0.92919686374056       -1.35059631682352
H           -6.56921104251487        0.18860581567682       -1.87799082416251
H           -6.79307251910887       -1.25812094135792       -2.87571279122073
H           -5.33375622533993       -0.26430163862988       -3.07765359438145
H           -5.38269194878498       -5.29253257907524        2.97362679173362
H           -5.72193016813837       -5.84298909792583        1.27774181340914
H           -4.06625327397663       -6.03221366309902        1.97506591827693
H           -2.79130055945567       -1.97868303397421        2.25336813933397
H           -2.08577991826480        0.33226496057967        2.13945457395066
H           -2.94510042431478        2.71301956891787       -1.84128068206165
H           -1.52162416509609        3.45605070895686       -1.10107832211720
H           -1.78942074986766        0.48489757420603       -1.74920991443590
H           -1.04782918542570        1.71717930953220       -2.79331367350920
H           -0.67882729957460        1.85635170238468        0.93415935033145
H            0.73665821338448        2.09925732204141       -1.00367428743273
H            1.99429009632465       -0.70499756461686        0.62973240104635
H            2.26170550467682        0.97642373855044        0.14913125703394
H            2.75091188434306        0.16983771309595       -2.19154510981902
H            2.63032869730109       -1.50060444763809       -1.61510512331432
H            4.62357331886454        1.59195291285911       -1.51408054697168
H            6.92496134639550        1.71634152313183       -0.72653950471036
H            8.64380643858854        1.68332249308910        0.87963463874252
H            9.19889335556103        1.05155878971811       -0.69680262696493
H           10.00887083912556        0.54111569442530        0.80575236384158
H            6.92647021517453       -4.34296910595220        1.54853569940310
H            5.32482810479825       -3.58229815035934        1.70572209464853
H            5.89700132341290       -4.14626193742287        0.10785150564848
H            4.31476545220662       -2.41142497246845       -0.08780765775063
H           -0.32453350634438       -1.40246970046168       -1.87121373525362
H           -1.10739528249564       -1.13065786825147       -0.29790565104526
H            0.43132989426125       -1.98410449433759       -0.38353242145822
H           -4.63676875666933        3.02806073633665       -0.25689038734207
H           -3.83137423276142        3.11721186542241        2.67279275728227
H           -4.86423774788401        1.88473041570134        1.93502689176736
H           -5.40942539163346        3.56383638500421        2.01815024780306
H           -2.74938310168560        4.91976091183278        1.20461044988922
H           -3.12760595164236        4.96932222894718       -0.52381049547006
H           -4.37606699700272        5.30314525106364        0.66569489851262
H           -0.73692254373699        3.28258986616501        2.76958639256286
