72
 energy: 20.454382180330 xtb: 6.6.1 (8d0f1dd)
N           -1.54040538296594        2.96692342435135        2.24110068568496
C           -1.55300999461377        2.27658500089603        1.19171412977313
C           -2.72935994822468        2.13616708819962        0.25483616205227
C           -3.26036825494533        0.70607456738158        0.34724282387362
C           -4.19994724879469        0.20417951517777       -0.55066294438533
C           -4.70666993427231       -1.10485933626959       -0.47906474896219
O           -5.65454366903762       -1.52708238327839       -1.38000700779975
C           -6.23874586194762       -0.63439684715907       -2.31063564893766
C           -4.25227473295909       -2.04431901206002        0.54768577995363
O           -4.73334175844162       -3.40291685650769        0.63377838951294
C           -4.77002266148877       -4.59437014878351        1.60208989432365
C           -3.31286158969195       -1.48570985039427        1.39983594777773
C           -2.83740942247834       -0.17617943108495        1.32306238203039
C           -2.16767719723033        2.40325042106149       -1.17216097857839
C           -1.25425536116466        1.28787697911819       -1.71392489218957
C            0.01478138895377        1.22267135932380       -0.95083414534629
N            0.60299737349535        0.01262504680378       -0.61085149146196
C            1.96984359997506       -0.03076599435414       -0.18721550777371
C            2.92101835684944       -0.51548505073098       -1.30790700118416
C            4.34366458900363       -0.43083685232524       -0.85800983774608
C            5.06976528222447        0.73198984642847       -1.03304720640133
C            6.38060664681869        0.82663610713469       -0.58805722047150
C            6.98109402867708       -0.23983357164969        0.05702246191807
O            8.26334408690349       -0.26351699504762        0.52855576236417
C            9.06253880767040        0.87542588464929        0.33791194946767
C            6.24138510437339       -1.42699525518807        0.25991448154265
O            6.91593119502822       -2.42551286761897        0.90155248169935
C            6.26562758343853       -3.65040142179629        1.11140609222186
C            4.93855960158436       -1.50324601254031       -0.19221755457724
C           -0.09286897091509       -1.24408762848501       -0.71284773992913
C           -3.88259191927475        3.13380940860005        0.55815406520793
C           -4.51758526187341        2.83910930127861        1.91565537889282
C           -3.44331846375678        4.59798396934449        0.50928128339635
H           -4.54566790422010        0.89355690363233       -1.31702502292793
H           -6.72275553436158        0.22617688048361       -1.83325133848815
H           -7.00364914488428       -1.21603607839892       -2.82972470736397
H           -5.51867244104009       -0.26668057988162       -3.05233051198017
H           -5.08531288679313       -4.37456122853469        2.62714491713761
H           -5.49925802573078       -5.29944173043158        1.17880597309628
H           -3.79832450756161       -5.09071295357428        1.63789866045086
H           -2.93564778734444       -2.12188673332430        2.18125865290014
H           -2.12102403202351        0.15084141351821        2.05744425981320
H           -2.99938624955595        2.53259139866932       -1.86803223243103
H           -1.59497371862618        3.33451662731691       -1.15605422932695
H           -1.78701197778711        0.33970074816157       -1.67597139514820
H           -1.05176962580557        1.51398824934351       -2.77582716792565
H           -0.68211822171509        1.73584673550587        0.76931186583623
H            0.69305178411282        2.05102335249892       -0.99458087944191
H            2.07377793808787       -0.69825655988096        0.67914765719379
H            2.27637580183443        0.97249438061076        0.11900014889648
H            2.75701706858998        0.11410912804759       -2.18064421292095
H            2.65979135364984       -1.54408937893660       -1.56187070875023
H            4.62154688531976        1.57383713356914       -1.53979425515552
H            6.92588522900772        1.74139760446959       -0.76057734129296
H            8.64683304654002        1.75392254502757        0.84362317542224
H            9.19926775603682        1.10141117712648       -0.72533240030019
H           10.02619611466558        0.62697281382136        0.78061115078349
H            6.99846906288923       -4.28491945393006        1.60861622249972
H            5.38826483704544       -3.53900591540827        1.75781100099261
H            5.96524325842455       -4.11605938327085        0.16701045846738
H            4.36330347271301       -2.40362871441306       -0.04209770510748
H           -0.27085873758213       -1.53375224295669       -1.75484925130579
H           -1.05474217118672       -1.19263054695924       -0.19491877580814
H            0.49957092889489       -2.02883485799089       -0.23983457282748
H           -4.64752646617870        2.98787626888888       -0.21470316409812
H           -3.78458446551099        2.99685636149296        2.69928659231087
H           -4.87037691354037        1.81209240287383        1.96008776594650
H           -5.36241779623962        3.50457015398622        2.08267951547817
H           -2.66583455765289        4.78619233041981        1.24136347542825
H           -3.07958129886425        4.88206015323458       -0.47589841537038
H           -4.29144595485027        5.23661141203723        0.74802904486122
H           -0.65288423455493        2.99756685547805        2.73585244329680
