72
 energy: 13.211109304754 xtb: 6.6.1 (8d0f1dd)
N           -1.53347906407428        2.93859922592757        2.24212080669945
C           -1.55287579238308        2.25738858697162        1.18731265603675
C           -2.73156532340775        2.12534786606456        0.25350465624624
C           -3.26842832387879        0.69816833570732        0.34476475564223
C           -4.21532307955555        0.20984973868054       -0.55334287720510
C           -4.72660886658888       -1.09401143149918       -0.48479508661434
O           -5.67821021460203       -1.52295730531705       -1.37625730780593
C           -6.26101928093081       -0.63198187710592       -2.30743684126303
C           -4.27176751024371       -2.03083865560980        0.53346076792163
O           -4.77355657892972       -3.36639954849668        0.60004041266600
C           -4.75542476287966       -4.52041936890956        1.56956346855074
C           -3.32685280181462       -1.49355369513466        1.39236744466778
C           -2.84403889830382       -0.18735874328018        1.31721229027239
C           -2.17140673515840        2.38838590672192       -1.17423409892993
C           -1.25485212050704        1.27175381425913       -1.70744457764295
C            0.01283087147260        1.20897892388098       -0.93933826387250
N            0.60877242720169        0.00251396071721       -0.60478482789162
C            1.97542056601985       -0.03220006371583       -0.18311151387960
C            2.92417015392294       -0.51930980893227       -1.30390630528312
C            4.34660173752581       -0.43143535164748       -0.85527625320154
C            5.07084006856267        0.73189103990724       -1.03400874686324
C            6.38154993462465        0.82893284845274       -0.58987509239479
C            6.98346311232948       -0.23548811424116        0.05722099254579
O            8.26540267211640       -0.25633251541709        0.52846447094731
C            9.06355161481026        0.88278248909958        0.33535165995021
C            6.24553119195507       -1.42327155684680        0.26295784858635
O            6.92136863008486       -2.41982388476672        0.90560279104585
C            6.27270561178161       -3.64551918901836        1.11699240705556
C            4.94256767051358       -1.50199586492678       -0.18799839220590
C           -0.08708714327909       -1.25314467077461       -0.70004450256173
C           -3.88083814092375        3.12572733215408        0.56125468275518
C           -4.51439119887787        2.82983031365973        1.91917203665748
C           -3.43642631217273        4.58813561207080        0.51498965302145
H           -4.56216413224791        0.90030908453048       -1.31666376345932
H           -6.74105820134561        0.23022869020284       -1.82933860495728
H           -7.02771357662782       -1.21277490927010       -2.82378050096351
H           -5.54015750367316       -0.26825977900583       -3.05008853260323
H           -5.05600829150950       -4.27932002498827        2.59469833501113
H           -5.47374337259903       -5.25340651306801        1.18058587511262
H           -3.77009393874615       -4.99225727840333        1.59884629059601
H           -2.95341802870351       -2.13585614273346        2.17140252915303
H           -2.12346651869272        0.13476257772764        2.05012087905822
H           -3.00323224296900        2.51143667389919       -1.87098965876467
H           -1.60276551257364        3.32184254588320       -1.16313528002353
H           -1.78870999632909        0.32408074063372       -1.66909844399933
H           -1.04580898959143        1.49330432458006       -2.76842758377033
H           -0.68246711977165        1.72309507994227        0.75103415421758
H            0.68597881868049        2.04195053512229       -0.98663756055952
H            2.08089319649775       -0.69426168021949        0.68657997021213
H            2.27977891068854        0.97383798556909        0.11732102885884
H            2.75826620304872        0.10753120065549       -2.17866903746580
H            2.66280078011316       -1.54857283087942       -1.55493340371100
H            4.62137351054076        1.57215807780813       -1.54245941799882
H            6.92571991880535        1.74379707539068       -0.76454613662588
H            8.64731688369145        1.76165313670134        0.83992724965202
H            9.19935432906164        1.10691045140184       -0.72837445844454
H           10.02767328610329        0.63598378810021        0.77783041923849
H            7.00639423032045       -4.27849235149997        1.61476835861728
H            5.39524726798842       -3.53463534158730        1.76337683178756
H            5.97280598386083       -4.11285588832595        0.17321443391406
H            4.36859105620547       -2.40308243124031       -0.03684321625740
H           -0.26413943079542       -1.54709812085739       -1.74086505977570
H           -1.04962380341435       -1.19904460759097       -0.18326129576086
H            0.50756525299293       -2.03268795018549       -0.22270099166898
H           -4.64740714351022        2.98363558855684       -0.21050895718257
H           -3.78011957132208        2.98276735272854        2.70265290534415
H           -4.87112602003403        1.80406443328991        1.96196260706112
H           -5.35651663337091        3.49790875452723        2.08886878457990
H           -2.65641258452531        4.77154889771190        1.24581885740211
H           -3.07410884289366        4.87305678587164       -0.47040513095796
H           -4.28190789254214        5.22888515360257        0.75705822988930
H           -0.64607677554401        2.96351675839747        2.73812453703583
