72
 energy: 69.737710203450 xtb: 6.6.1 (8d0f1dd)
N           -1.58605335073693        3.16028119117643        2.23067276110318
C           -1.56399342714119        2.42197207426505        1.22028941333669
C           -2.70890000729812        2.22422008796067        0.26131127085931
C           -3.18974239176371        0.78184979285829        0.36235520572577
C           -4.08048740517459        0.23532544486453       -0.56099657454800
C           -4.55334005560204       -1.06835359695755       -0.48679828918793
O           -5.48785769934150       -1.52363668652283       -1.39882854914728
C           -6.08961435335288       -0.65331625413717       -2.33549855733733
C           -4.06524477069134       -2.01466983658999        0.53967788750090
O           -4.35889678814338       -3.24419342488975        0.64385010916368
C           -4.97143408480402       -5.39340699788966        1.94416750889854
C           -3.17320113125020       -1.38441592757801        1.44219447103509
C           -2.76529793191359       -0.07245805482020        1.36948306671835
C           -2.12942636422801        2.50988383580400       -1.15676971598481
C           -1.24312752676947        1.39165810694282       -1.74703332051241
C            0.06595948415220        1.24036414535828       -1.07267042420628
N            0.56650572789567        0.07529722565937       -0.66572600701601
C            1.93716935897476       -0.00862369588867       -0.20557954020732
C            2.88919516428692       -0.48727175246822       -1.32243606277783
C            4.31832443021369       -0.41966881217009       -0.85593039888918
C            5.05847122388822        0.73423143808287       -1.02168137627232
C            6.37263317637503        0.80899724491276       -0.57542515197267
C            6.96359108689430       -0.27131245849966        0.05480719529647
O            8.23887160686855       -0.31037612495652        0.52590713023724
C            9.05381607662298        0.82365690741308        0.35603354826131
C            6.21206589542422       -1.45676983269063        0.24036232262716
O            6.87330580633440       -2.46270989714965        0.87081760500076
C            6.21457098879622       -3.68641215904994        1.07008458039888
C            4.90687757097809       -1.51145170600734       -0.21474808557101
C           -0.13579963762000       -1.18597182178147       -0.79740529915601
C           -3.89164095307269        3.19610065455865        0.53461647912087
C           -4.53843899227072        2.90378766311863        1.88698657812055
C           -3.48973563080705        4.67030286632554        0.47003374736739
H           -4.43216221034270        0.89520305164097       -1.34431116069071
H           -6.60154128480657        0.19728790667698       -1.86761837501621
H           -6.83907390552195       -1.24847678396459       -2.86438475752018
H           -5.37500896001446       -0.26316492400687       -3.07373725005111
H           -5.31736679051072       -5.09585274604653        2.89445009997800
H           -5.69495822576907       -5.73032970937920        1.23115905245861
H           -4.01067643072073       -5.82333666267448        1.89852804210501
H           -2.81905664163104       -2.00988568004176        2.24265066898334
H           -2.09122039024254        0.29317634613197        2.12188153467831
H           -2.96026810853650        2.67376339526141       -1.84757226174550
H           -1.53781476419979        3.42899175507852       -1.11463030730243
H           -1.78727982574879        0.45073161709622       -1.73095602526171
H           -1.06260530371318        1.67019171928631       -2.79792932002724
H           -0.68049664862955        1.83250924148053        0.89965711583611
H            0.73801816032625        2.08618209824253       -1.02220474889881
H            2.01090661535493       -0.70529341322388        0.63724781961657
H            2.26125404694225        0.97395298774049        0.14334587416586
H            2.75146628780985        0.15721550711527       -2.19000167097632
H            2.63745353029524       -1.51129740760089       -1.60470969631177
H            4.62340319738136        1.58793430430370       -1.51953849324588
H            6.92569566683153        1.72231630423232       -0.73305077273742
H            8.64433264286793        1.69866111519318        0.87173530445696
H            9.19893388215496        1.06244681701567       -0.70289918861945
H           10.01296394243955        0.56010738206603        0.80037223366253
H            6.94229958491069       -4.33050909468031        1.56229639058015
H            5.33880134705434       -3.57274657994238        1.71747276162351
H            5.91199019247659       -4.13978080412377        0.12117908587180
H            4.32519757258636       -2.40934884599831       -0.07797054629928
H           -0.31344945474116       -1.43399819463856       -1.84649142542468
H           -1.09493526031241       -1.14550376401256       -0.27553065042092
H            0.44436413823218       -1.99671866243860       -0.35327815935959
H           -4.64069701212983        3.01975115748274       -0.24717424324790
H           -3.82096919455656        3.09182411858722        2.67788141510286
H           -4.86629022904797        1.86968673623068        1.94070894984451
H           -5.40037960823408        3.55201874145452        2.03339186860584
H           -2.73150153152995        4.89099266295412        1.21272933357031
H           -3.11735967446965        4.95042082512835       -0.51328664499921
H           -4.35777329902938        5.28982235322629        0.68474662639188
H           -0.71775374641474        3.22355683169942        2.75614326742810
