72
 energy: 70.465737349670 xtb: 6.6.1 (8d0f1dd)
N           -1.58821031981358        3.18800580822949        2.22288911732724
C           -1.56614774419671        2.43673722860206        1.22374702305523
C           -2.70552124442295        2.23615152559806        0.26106382637742
C           -3.17901020180759        0.79300834823576        0.36115516312226
C           -4.06750180822612        0.25117648844775       -0.56822093126030
C           -4.53513857410670       -1.05008767561894       -0.49704780525130
O           -5.46634984133860       -1.52166467665492       -1.40066080500346
C           -6.07016466440086       -0.65563835596190       -2.33986669664619
C           -4.04810330062728       -1.98623389047603        0.53168510927083
O           -4.35157938971304       -3.20080304624448        0.63716917742258
C           -4.99508977317283       -5.49363551753772        1.99294084437632
C           -3.15333722376634       -1.36828400044382        1.44459362296542
C           -2.75208772596895       -0.05724113174261        1.37283331077310
C           -2.12281948965349        2.52490151372877       -1.15442936560780
C           -1.23934719873172        1.40740712987528       -1.75022246235275
C            0.07425472085041        1.24380963519904       -1.08812378793038
N            0.56114357719487        0.08281098118070       -0.67058838494385
C            1.93237297293340       -0.00490216805864       -0.20732203692665
C            2.88504524378022       -0.48276474696778       -1.32379016484870
C            4.31425130194117       -0.41811740918547       -0.85472878638552
C            5.05663308401277        0.73437019695909       -1.02012819395792
C            6.37104646207698        0.80625639752978       -0.57402341566855
C            6.96145692943636       -0.27580317772114        0.05424859270691
O            8.23526471742650       -0.31627450198891        0.52544631692079
C            9.05261746009546        0.81654224310919        0.35847672495010
C            6.20778704492429       -1.46068708548505        0.23785925987650
O            6.86721018362211       -2.46760029839127        0.86637410241392
C            6.20734295545667       -3.69128479248132        1.06398511362264
C            4.90216209864014       -1.51242300035526       -0.21695671923395
C           -0.14230187680079       -1.17693665361968       -0.80899282647362
C           -3.89229848941022        3.20435394069566        0.53101294498037
C           -4.54039066538564        2.91162014731172        1.88242937916050
C           -3.49578458117679        4.67990108103101        0.46447476850460
H           -4.42476374135992        0.91283025364128       -1.34756264019972
H           -6.58587446927587        0.19362668493614       -1.87400088925847
H           -6.81569373304142       -1.25313957580110       -2.87072172282450
H           -5.35417468145898       -0.26353605317991       -3.07588742960586
H           -5.34922140536703       -5.19342300642736        2.93662886150385
H           -5.71000177101200       -5.79093400211470        1.26424906558805
H           -4.03929689784496       -5.92619288488804        1.93841828913161
H           -2.80512189859037       -1.99504981353522        2.24885589938181
H           -2.08905576296404        0.31400651282398        2.13236564446357
H           -2.95294191273784        2.69380355386383       -1.84445734043512
H           -1.52980559052059        3.44268227609022       -1.10777271903353
H           -1.78723782573738        0.46833496326773       -1.74182481272987
H           -1.05579048866727        1.69586824674512       -2.79676173809373
H           -0.67901439731553        1.84557840876826        0.91591287285366
H            0.73903472273246        2.09305222039977       -1.01313492031943
H            2.00204045359416       -0.70478613921207        0.63291875847087
H            2.26098276226122        0.97566235464382        0.14622914430688
H            2.75112781507321        0.16367804808194       -2.19089527342341
H            2.63394563426968       -1.50598286312844       -1.61012507046986
H            4.62365705450931        1.58998004173139       -1.51677915227067
H            6.92528510463110        1.71927272595366       -0.72976035824232
H            8.64408417027981        1.69096168589660        0.87573815943327
H            9.19898166031315        1.05702117332896       -0.69982118125764
H           10.01095925282800        0.55062448278609        0.80309182162563
H            6.93420210747665       -4.33684390949280        1.55539171152022
H            5.33175480228268       -3.57745338605804        1.71153704803123
H            5.90439954142091       -4.14295517662523        0.11445714143605
H            4.31999464811288       -2.41034757777514       -0.08272544117479
H           -0.31911050295100       -1.41768850733186       -1.85930921544811
H           -1.10146310517423       -1.13758910558227       -0.28719710236198
H            0.43755701566629       -1.98963937143447       -0.36870033505504
H           -4.63869569807358        3.02379469245983       -0.25222430388083
H           -3.82572942612817        3.10383916430928        2.67485084816710
H           -4.86493288102296        1.87662446221915        1.93738894620866
H           -5.40467411995330        3.55733343509742        2.02572293561573
H           -2.74040323270383        4.90501530989999        1.20876239668600
H           -3.12239318155575        4.95994832311348       -0.51843553164611
H           -4.36685037677846        5.29639012095539        0.67542742040030
H           -0.72830711552905        3.25358941694834        2.76251147796384
