72
 energy: 65.667275991775 xtb: 6.6.1 (8d0f1dd)
N           -1.57547752331331        3.09996022593754        2.23775895792448
C           -1.56087789745958        2.38223856091000        1.21192430213926
C           -2.71588202764424        2.19890910530266        0.26010214487768
C           -3.21108886840325        0.75954754851029        0.35876778543947
C           -4.11535730588838        0.21802867254710       -0.55293000407387
C           -4.59816874561655       -1.08842913011530       -0.47617533465182
O           -5.53521146909988       -1.52821653449669       -1.39564655017385
C           -6.13071678921281       -0.64823677659228       -2.32817501311016
C           -4.12027585680500       -2.03934124894227        0.55207620351568
O           -4.42004278374633       -3.31099338271700        0.63957360597175
C           -4.90714672107146       -5.17479567815324        1.86071284444211
C           -3.21578232757527       -1.41421761066081        1.43061784413732
C           -2.78787057231847       -0.10187122466111        1.35560432863857
C           -2.14146515764341        2.47957930260811       -1.16080145400200
C           -1.24885573217706        1.36186103319592       -1.74031220517380
C            0.05138837662672        1.23431175068133       -1.04540284523636
N            0.57594216639694        0.06149063987894       -0.65249611569669
C            1.94710954038005       -0.01522983058004       -0.20134257305174
C            2.89772589348513       -0.49543980616698       -1.31932858267792
C            4.32624709552770       -0.42300097404551       -0.85797332416142
C            5.06183832454832        0.73355199314019       -1.02505450846636
C            6.37516090984230        0.81418684267668       -0.57844614454029
C            6.96840712496470       -0.26241097179603        0.05583264392202
O            8.24643211354856       -0.29849810609264        0.52685662645661
C            9.05639337258761        0.83802356231091        0.35115444168062
C            6.22042184384267       -1.44864203006799        0.24562151642072
O            6.88577067446074       -2.45288211537109        0.87929584093307
C            6.22909750998219       -3.67649720040458        1.08202430435223
C            4.91605259205688       -1.50929601416353       -0.20936613740648
C           -0.12358506608858       -1.20277383398152       -0.77431024679135
C           -3.88956244223018        3.17906735027331        0.54131862115455
C           -4.53312166114149        2.88627305496799        1.89518340919673
C           -3.47660815499526        4.65046723741728        0.48126747886753
H           -4.46728085370798        0.88417777243542       -1.33118225783171
H           -6.63529278546360        0.20576029085996       -1.85780115954343
H           -6.88497299684240       -1.23827391952942       -2.85613145346890
H           -5.41485295386349       -0.26279054147786       -3.06732901441768
H           -5.24865393733560       -4.88933613405387        2.82428410812796
H           -5.64550885485074       -5.60435227589568        1.20682600269608
H           -3.94235370428493       -5.61519303510511        1.82583082484262
H           -2.85197738330196       -2.04110451946010        2.22604869514073
H           -2.09909089808561        0.25124932076937        2.10182553327491
H           -2.97303748733068        2.63358301739226       -1.85267448853525
H           -1.55453554443406        3.40195187078878       -1.12552375886352
H           -1.78697957500351        0.41795525097478       -1.71512322134552
H           -1.06636432787090        1.62415881423690       -2.79708063148277
H           -0.68174589904601        1.80436497877396        0.86328839525511
H            0.72178890929394        2.07865688384910       -1.01961789999345
H            2.02962263528718       -0.70551612744777        0.64687432233198
H            2.26433595081101        0.97175739916449        0.13654833106201
H            2.75218473880407        0.14513226957310       -2.18777157685269
H            2.64384201601852       -1.52098995705710       -1.59302404004448
H            4.62245748220552        1.58358444526627       -1.52508657737550
H            6.92596713592668        1.72790213183613       -0.74064084405649
H            8.64485390014115        1.71405728389356        0.86385401955748
H            9.19903323720889        1.07341295420607       -0.70901331577838
H           10.01697756280666        0.57924940097442        0.79509210640052
H            6.95825388506402       -4.31787179704967        1.57581406753522
H            5.35297689271473       -3.56294282878031        1.72909075610881
H            5.92711321798532       -4.13314762419149        0.13438599616775
H            4.33598379498998       -2.40754415608451       -0.06758162850444
H           -0.30193532648422       -1.46370963972596       -1.82115466121130
H           -1.08295553425632       -1.15903536782332       -0.25284935596417
H            0.45844441647607       -2.00814900158359       -0.32207945682741
H           -4.64360021406069        3.01125562975241       -0.23769061833083
H           -3.81028417615570        3.06562071833482        2.68319536546586
H           -4.86777939849557        1.85409380458867        1.94595932008317
H           -5.39025679623217        3.53949491931498        2.04780011506423
H           -2.71279496950555        4.86172523083979        1.22099077399132
H           -3.10627487599565        4.93154468261203       -0.50260524784749
H           -4.33855767087434        5.27609793727636        0.70312341909216
H           -0.69665802253109        3.16273559254806        2.74434065390559
