72
 energy: 68.693819765064 xtb: 6.6.1 (8d0f1dd)
N           -1.57273303605222        3.28602746388236        2.20548775412322
C           -1.54391526994634        2.51764758449684        1.21794005864837
C           -2.67694169492339        2.32128640295123        0.25271271386393
C           -3.15686234932850        0.88370547959802        0.33590093915830
C           -4.06352291116942        0.38872203658200       -0.61118840388759
C           -4.50320610232936       -0.91345289863770       -0.58257311083306
O           -5.40809874901405       -1.45277398013830       -1.44948046356000
C           -6.02942853461975       -0.63032725945896       -2.39373598508273
C           -4.01423135484719       -1.85043125118669        0.42395577730850
O           -4.32233407388048       -3.05469780842144        0.43524641447637
C           -5.15359441104962       -6.23054525219740        2.32175623787624
C           -3.13611682108664       -1.27789101366129        1.39672922758589
C           -2.73369218470496        0.03267610927441        1.35550989986209
C           -2.08228721739866        2.60595706177260       -1.15480222595262
C           -1.23247092041526        1.46301251722147       -1.74063432631344
C            0.05675038551212        1.26911676886874       -1.04092227809843
N            0.56768472594616        0.08952301695318       -0.68824495207017
C            1.92498883159461       -0.00398269173938       -0.21163978136593
C            2.88016200391584       -0.47466352544013       -1.32605188161830
C            4.30552595188031       -0.41537201599986       -0.85694020277667
C            5.05144382827263        0.73551339654283       -1.02016227001724
C            6.36389460519685        0.80088130702899       -0.57238987434484
C            6.94756048176936       -0.28665958970868        0.05148515362517
O            8.22143926020977       -0.33878963989762        0.52197011688138
C            9.04583810958208        0.78872211735846        0.36537238847234
C            6.18913209783169       -1.46827916049202        0.23039679410976
O            6.84567531124141       -2.48445568421986        0.84786179776645
C            6.18073278092249       -3.70758482471458        1.04027071497605
C            4.88305659184170       -1.51365237002400       -0.22137541550547
C           -0.16375380072673       -1.14446379760065       -0.84571988643536
C           -3.88475795327192        3.26504510543996        0.51370344147770
C           -4.54162389360836        2.96302154620361        1.85995634561028
C           -3.52643927891452        4.74707130046463        0.43406247887407
H           -4.42708416789657        1.05870346959101       -1.37899043846759
H           -6.56011004016971        0.20476360970958       -1.92102802977999
H           -6.74745525700071       -1.26460124719072       -2.91276473680195
H           -5.31190214902616       -0.23357718236506       -3.12279583782586
H           -5.54012187357086       -5.93870690480059        3.27177965258528
H           -5.69933419567966       -6.00936828374831        1.43995496361465
H           -4.19539508336460       -6.69387645003545        2.24550468245483
H           -2.80901147333306       -1.94141105216751        2.18312517969861
H           -2.08567388975547        0.41437838003807        2.13400281920394
H           -2.90317404615918        2.79079093227197       -1.84699280124904
H           -1.47753538975346        3.51353722879457       -1.10588404810486
H           -1.81794029978996        0.54531478790730       -1.75400058458517
H           -1.01044949375279        1.73745266389106       -2.78169498463145
H           -0.65294018282756        1.93029061293977        0.91355298799856
H            0.71310102665438        2.12400277519319       -0.95728042979491
H            1.96389692983366       -0.70389405039033        0.62728014066012
H            2.25397971341428        0.97551384227609        0.14396380481896
H            2.74945118474824        0.17922215041848       -2.19069479870071
H            2.61900747037678       -1.49155984445893       -1.62153063369095
H            4.62013130320372        1.59461962812526       -1.51237933246545
H            6.92361536303871        1.70988419044316       -0.72378748086085
H            8.64252413355271        1.66223980731704        0.88860987708039
H            9.19808576540391        1.03608308777164       -0.69058069623141
H           10.00041532188772        0.51329269283138        0.81064617561597
H            6.90611617517771       -4.35757862037796        1.52691343877632
H            5.30518323669497       -3.59660113731509        1.68881269267655
H            5.87486983893709       -4.15704777975494        0.08959601556847
H            4.29718283570675       -2.41122238873010       -0.09688223957054
H           -0.35061389825239       -1.35914139170414       -1.90001291020007
H           -1.12190537045646       -1.09829152658765       -0.32064899443801
H            0.41667842468164       -1.96027968400025       -0.42424721115784
H           -4.62146271064352        3.05226791451517       -0.26995246075800
H           -3.84710354077565        3.16929227688880        2.66736488177146
H           -4.84763996730466        1.92150774361217        1.91739468075265
H           -5.42210076075897        3.58802593873098        1.98881862130111
H           -2.78290733668123        4.99064911041002        1.18630305366250
H           -3.14587790437212        5.01932443788772       -0.54755441985598
H           -4.41566072738566        5.34228944515669        0.62611692556179
H           -0.72488739563461        3.34357093097141        2.76464326088302
