72
 energy: -5.336112854216 xtb: 6.6.1 (8d0f1dd)
N           -1.49852874059925        2.79853832265586        2.23761549915710
C           -1.55045819679050        2.16827141372931        1.15331760138987
C           -2.74365355796248        2.07052548837623        0.24550356057323
C           -3.30728110868917        0.65624327850391        0.32874896972354
C           -4.28880669830979        0.24042164000289       -0.57235979411669
C           -4.82766908873771       -1.03442344310272       -0.52308981049331
O           -5.79563824306935       -1.49523946407438       -1.36609935564357
C           -6.37326732260500       -0.61331201859809       -2.29687503524844
C           -4.37632543030010       -1.95789993426328        0.45682763780279
O           -4.95732064856443       -3.19835429383311        0.43916557135013
C           -4.68000876102659       -4.16747986714157        1.43205200956429
C           -3.40595535181209       -1.53584710936554        1.34525276072973
C           -2.87999770781126       -0.24906366453702        1.28302434172959
C           -2.19058982268721        2.31595364878195       -1.18379189477888
C           -1.26125235622129        1.19217627189733       -1.67245478250172
C            0.00616737166705        1.13756467742336       -0.89912931179082
N            0.63321332875403       -0.04338471840329       -0.56660449364040
C            1.99990674914924       -0.03371816458995       -0.16144006953370
C            2.93430181751196       -0.53737632968367       -1.28287099050797
C            4.35772141341448       -0.43316205512225       -0.84024618652224
C            5.07496100666429        0.73122255042639       -1.04041594256376
C            6.38572842343563        0.84016668809410       -0.60058624585333
C            6.99478465193989       -0.21345908022585        0.05702855190960
O            8.27398914066146       -0.21889200689306        0.52735048126651
C            9.06801160802303        0.92069873757776        0.32192684226192
C            6.26604836475554       -1.40459566370673        0.27717059790440
O            6.94775042468755       -2.38971266121262        0.92633449189375
C            6.30872205763245       -3.62000615335634        1.14644346612861
C            4.96161653774103       -1.49513053539792       -0.16687640058420
C           -0.05687700887670       -1.29680815763109       -0.63358756365472
C           -3.87063082068895        3.08529114280011        0.58004160647779
C           -4.49822313972475        2.78417306818666        1.93969294645118
C           -3.40097933653606        4.53903813368989        0.54303669726694
H           -4.64241168637416        0.93863079375609       -1.31555594726656
H           -6.83177177776418        0.25380552356524       -1.80905245642190
H           -7.14899087663416       -1.19041558068748       -2.79880218128006
H           -5.64703862692943       -0.26867740851084       -3.04171427045582
H           -4.91250229738857       -3.80976671119621        2.44073438058713
H           -5.32414214228374       -5.01614090304876        1.20403540183480
H           -3.63634305661488       -4.49752976606034        1.39809976228405
H           -3.05103219667786       -2.20700298063578        2.11105203221314
H           -2.14208112226266        0.04140004892615        2.01451904095422
H           -3.02112492184512        2.40623798480163       -1.88505006025032
H           -1.64208986278352        3.26003356453348       -1.19637320139865
H           -1.80112163989352        0.24670331295463       -1.62973321346123
H           -1.01473345728608        1.39438132457139       -2.72354424676120
H           -0.68387755606432        1.66315738007009        0.65732920955288
H            0.65140451157079        1.99710858439321       -0.94714823180609
H            2.11514079493803       -0.66978617264289        0.72298391791148
H            2.29755241446276        0.98297195034163        0.11012558443001
H            2.76507056781334        0.07424475533824       -2.17059772319706
H            2.67735580434681       -1.57069217547003       -1.51978857075367
H            4.62128188710655        1.56336805698260       -1.55838357534880
H            6.92463866890477        1.75537550579152       -0.78616543887612
H            8.65024790163888        1.80220349958704        0.82041589156383
H            9.20071585931264        1.13535830658747       -0.74400865954634
H           10.03426201695609        0.68230400126969        0.76373504873580
H            7.04708732715973       -4.24415605622517        1.64761692611378
H            5.43078141206117       -3.51197443155114        1.79284569130132
H            6.01198113619791       -4.09701173544909        0.20605798879671
H            4.39559996268072       -2.40076725483203       -0.01092668503186
H           -0.22850505177015       -1.61094146351888       -1.66879868790615
H           -1.02273122054007       -1.23426892790368       -0.12300938155679
H            0.54942185978573       -2.05138348842906       -0.13797852827718
H           -4.64442575941249        2.96084132409123       -0.18655638299955
H           -3.76184223342193        2.91576028448062        2.72568295068280
H           -4.87393354483246        1.76455346955316        1.97602021969971
H           -5.32788584835790        3.46405231705209        2.11883831059104
H           -2.60951469945472        4.70206585017257        1.26802477458470
H           -3.04566377037893        4.82624268581056       -0.44372784539760
H           -4.23383220025717        5.19011454627538        0.79856870172585
H           -0.60593631557812        2.80029731546956        2.72803850385199
