72
 energy: 7.159796303493 xtb: 6.6.1 (8d0f1dd)
N           -1.52628762872554        2.91069832742748        2.24238876286792
C           -1.55266971269243        2.23878079634802        1.18208849226395
C           -2.73402651084352        2.11434699809625        0.25235752647880
C           -3.27655782091470        0.68982616230199        0.34195467369974
C           -4.23047244816651        0.21561247059196       -0.55668246617318
C           -4.74641921844905       -1.08298996010729       -0.49216457392232
O           -5.70156890501850       -1.51832141513247       -1.37412001885342
C           -6.28318976230281       -0.62853220716401       -2.30501586422769
C           -4.29202783310202       -2.01737291540137        0.51775490002839
O           -4.81206668006842       -3.33117215362910        0.56633562908705
C           -4.74148974093660       -4.44760093900575        1.53929156194680
C           -3.34217552527956       -1.50232778877286        1.38360856361822
C           -2.85145529333197       -0.19963468615612        1.31073834921921
C           -2.17502900302119        2.37366452139535       -1.17585267561389
C           -1.25583903058097        1.25540919698307       -1.70023653362900
C            0.01125823186679        1.19452560199881       -0.92906250841026
N            0.61466671842964       -0.00777225835941       -0.59828278199714
C            1.98112274305983       -0.03352313674323       -0.17897606396572
C            2.92709973716300       -0.52320314153503       -1.29992570927939
C            4.34950106529344       -0.43195614114989       -0.85266041135067
C            5.07202329185656        0.73176406246639       -1.03537215984639
C            6.38260607188549        0.83125707670213       -0.59198613093113
C            6.98589831914701       -0.23102914024971        0.05726741807184
O            8.26733328841184       -0.24884021961094        0.52836783554246
C            9.06455327083549        0.89039362256187        0.33265375971048
C            6.24981912532286       -1.41947453031363        0.26590114062334
O            6.92686642172277       -2.41384030003747        0.90983271757575
C            6.27999548641613       -3.64039292584552        1.12292320911104
C            4.94671774360425       -1.50069264602054       -0.18395475035569
C           -0.08089891972088       -1.26242860787945       -0.68697530016838
C           -3.87907281782967        3.11767029977796        0.56493901022348
C           -4.51126932762340        2.82074654807359        1.92328973958129
C           -3.42956308194048        4.57835393834004        0.52054666952407
H           -4.57855135207445        0.90762402524679       -1.31623038524620
H           -6.75893875346794        0.23476442842378       -1.82498843855352
H           -7.05179592448802       -1.20830526148411       -2.81867271181214
H           -5.56142389874044       -0.26831404484916       -3.04821787740365
H           -5.02811795694371       -4.18577208810649        2.56384678829849
H           -5.44688849703072       -5.20569713254020        1.18181762510706
H           -3.74298703053355       -4.89329470947896        1.55998971372258
H           -2.97254795438159       -2.15105237147085        2.15968950299497
H           -2.12709830681995        0.11670125234480        2.04283122607835
H           -3.00670851366912        2.49043955708142       -1.87360898450838
H           -1.61024130290032        3.30919590204968       -1.16963802632258
H           -1.79103759461163        0.30834173127834       -1.66099334793804
H           -1.03990140782182        1.47244065296740       -2.75986921178736
H           -0.68289715044504        1.71069483156929        0.73249019259964
H            0.67864993774721        2.03288281432592       -0.97874555248428
H            2.08824065686825       -0.68993895335232        0.69408228737787
H            2.28353136286389        0.97514040504446        0.11547924875197
H            2.75960376056557        0.10083380003555       -2.17692368403301
H            2.66604253289583       -1.55316059504967       -1.54811468484624
H            4.62141937912541        1.57037117994432       -1.54566526544729
H            6.92565590134534        1.74622111930863       -0.76881997303984
H            8.64787264133570        1.76975511369502        0.83596217135704
H            9.19956088451080        1.11256631702443       -0.73155910645969
H           10.02912912558606        0.64531502029810        0.77496493514126
H            7.01459414092820       -4.27165645935171        1.62137163185964
H            5.40242407326540       -3.53002747417478        1.76927700980087
H            5.98067458238620       -4.10958942355505        0.17980730329600
H            4.37409594820374       -2.40250948809193       -0.03171168568714
H           -0.25735890423437       -1.56027102118249       -1.72663102921177
H           -1.04390776765136       -1.20608675800335       -0.17105598220739
H            0.51600762904618       -2.03710380473672       -0.20599142097039
H           -4.64726892150494        2.97918374370278       -0.20566847941618
H           -3.77616282088156        2.96942012165419        2.70690087566837
H           -4.87155826061771        1.79610734040490        1.96474518377880
H           -5.35100655171014        3.49106828305806        2.09524612037330
H           -2.64716680049712        4.75753122056940        1.25013227963574
H           -3.06856305835962        4.86366157645557       -0.46514080998855
H           -4.27238728430504        5.22137308291952        0.76542063461813
H           -0.63818680922762        2.93085482546361        2.73791996296130
