72
 energy: 54.423839624020 xtb: 6.6.1 (8d0f1dd)
N           -1.56252963267521        3.04572789729632        2.24028346726069
C           -1.55614279575457        2.33941495270639        1.20400772979856
C           -2.72174913603820        2.17269426288131        0.25783380978969
C           -3.23258343667266        0.73564892624646        0.35467474736563
C           -4.15067511693743        0.20352987209321       -0.54727079478819
C           -4.64409186047846       -1.11071834527382       -0.46804300381926
O           -5.58278389345845       -1.53216942709240       -1.38882861768904
C           -6.17295434096468       -0.64294663029383       -2.32021083641657
C           -4.18212556076814       -2.05279744221417        0.56820542725614
O           -4.54627478717060       -3.41583341853976        0.65855676351651
C           -4.83643437416279       -4.89726772997273        1.74070167715407
C           -3.26178638236528       -1.44833277796390        1.42103170121348
C           -2.81068167341859       -0.13339907826367        1.34231422056321
C           -2.15386831228734        2.44915967474328       -1.16616516068342
C           -1.25252745950851        1.33490990943457       -1.73331552264039
C            0.03379686626182        1.24448108336190       -1.01054984415246
N            0.58508411656231        0.04474878160758       -0.63315553143710
C            1.95438756954480       -0.02192350549831       -0.19679566200533
C            2.90762527431192       -0.50332900304861       -1.31598780829078
C            4.33324577694489       -0.42694536643499       -0.86067558386830
C            5.06512988573088        0.73271789288926       -1.02872720327780
C            6.37730489859359        0.81927597143953       -0.58211480576308
C            6.97336312564464       -0.25334248289709        0.05639991443180
O            8.25440784290480       -0.28521449085578        0.52793969069966
C            9.05896540116206        0.85274144743453        0.34591113419774
C            6.22851443812584       -1.43947343124320        0.25107493674966
O            6.89811871750410       -2.44246040672281        0.88842731583716
C            6.24356678191408       -3.66599424650134        1.09377366509296
C            4.92510331039456       -1.50675251401813       -0.20332593583602
C           -0.11143205766192       -1.21756429777289       -0.75070871697697
C           -3.88711527144669        3.16011659321394        0.54822330752384
C           -4.52722406694511        2.86716638877975        1.90374245850734
C           -3.46329515646704        4.62887161688952        0.49255011004958
H           -4.49782466872582        0.88198280289825       -1.32213623670188
H           -6.66969214415116        0.21358101233808       -1.84724114853964
H           -6.93178276769111       -1.22947062139455       -2.84498595385675
H           -5.45620244900356       -0.26436823156572       -3.06093878641379
H           -5.17676153118674       -4.67508259814087        2.73854751436063
H           -5.58213691227916       -5.46970449935576        1.19114113331714
H           -3.88529462367606       -5.39791242081358        1.74890896925837
H           -2.88288850911953       -2.07352431051262        2.21012062407818
H           -2.10931383979415        0.20959615171951        2.08244833879974
H           -2.98556025754460        2.59451584014255       -1.85928150951506
H           -1.57131878070536        3.37472687753108       -1.13823880096267
H           -1.78426473976226        0.38695608841399       -1.69972982498042
H           -1.06605532716440        1.57970777529452       -2.79415626267184
H           -0.68222389532260        1.77668666774817        0.82675263551354
H            0.71248918878887        2.07394358552234       -1.01231948533258
H            2.04731260492720       -0.70398603138554        0.65907841842248
H            2.26713526099504        0.97147064861912        0.12808638912044
H            2.75349234304280        0.13308558413686       -2.18524158308181
H            2.64987760581910       -1.53023062581364       -1.58093810612974
H            4.62173087760996        1.57957659356938       -1.53073437092164
H            6.92597048084911        1.73356324888031       -0.74826895940596
H            8.64551632177346        1.72981977089062        0.85569966356997
H            9.19900044330312        1.08450011566099       -0.71558233468286
H           10.02099142340252        0.59847477851644        0.78928744615817
H            6.97407993711698       -4.30488930693672        1.58899425164677
H            5.36687991076111       -3.55322338098705        1.74053847424196
H            5.94203690525839       -4.12625678695440        0.14745777257855
H            4.34675932047528       -2.40565422672568       -0.05741794365552
H           -0.28976792793121       -1.49228682833455       -1.79570082405863
H           -1.07170689234759       -1.17254446961330       -0.23077164762110
H            0.47449938511178       -2.01582251883905       -0.28961134687482
H           -4.64601625519442        3.00204830427876       -0.22835319629611
H           -3.79946075372981        3.03784847251231        2.68920719809525
H           -4.86913714281815        1.83698496258620        1.95204386395481
H           -5.37947541895124        3.52529565590915        2.06270043814319
H           -2.69381460875252        4.83070804692140        1.22895675958008
H           -3.09550128784175        4.91098256511081       -0.49189260431995
H           -4.31952736839307        5.26025898502607        0.72133229178106
H           -0.67775622182520        3.09654852026942        2.73764553873762
