25
 energy: -42.124955443336 gnorm: 0.003055604144 xtb: 6.6.1 (8d0f1dd)
C            3.16950454554105        1.32859782402178        0.01712177472079
N            2.25996653035927        0.21802550860778       -0.00186949190873
C            2.59672376185195       -1.07526986013971       -0.00842617008878
N            1.45467119976762       -1.80372585643223       -0.00827432619539
C            0.37806009566720       -0.96851188192196       -0.00012943625137
C            0.88662966908953        0.32658351779229        0.00459270021111
C            0.02317913262229        1.47926999902795       -0.00585827690046
O            0.37833856761975        2.63885560464692       -0.02459672207118
N           -1.32765703373984        1.11125040211330        0.00256515850601
C           -2.31304185516727        2.17764863152860        0.00267664718938
C           -1.85078026209285       -0.17104998662350        0.00558884282632
O           -3.03807011858957       -0.37155794585970        0.01076135390920
N           -0.94204594713225       -1.24139704438444        0.00070085181039
C           -1.44942181838795       -2.59675245289835       -0.00548907981726
H            3.66723359092884        1.39697840235061        0.98785186120376
H            3.93943434565333        1.19238581356617       -0.74365365771334
H            2.61868574166352        2.25086445605047       -0.16610347307395
H            3.71099951623448       -3.78251445950582       -0.00914629525181
H           -1.78629811704517        3.13086966035728        0.01207244056946
H           -2.94427104298594        2.10424249213392       -0.88515854250652
H           -2.95565560660144        2.09112248805475        0.88100633377402
H           -1.10962683504460       -3.13492125041935        0.88105344174614
H           -1.12251655822625       -3.12197358515159       -0.90465971671196
H           -2.53820668584748       -2.54695130835145        0.00256146551428
H            1.45459669796182       -2.81383062696359       -0.01401606559006
