72
 energy: -99.374335807587 gnorm: 0.002390615725 xtb: 6.6.1 (8d0f1dd)
N           -1.31545613591579        3.18530172634077        1.74621739694403
C           -1.49542193960584        2.08887354159727        1.16893734111055
C           -2.52465611132668        1.88642937089259        0.08812496337880
C           -3.20012451478981        0.53518755970740        0.24488622332187
C           -3.92174332848579       -0.01026561343862       -0.81910626775068
C           -4.58315691387960       -1.22149294336513       -0.70575618969070
O           -5.30317702575197       -1.80787144935266       -1.68508764516573
C           -5.53348214118928       -1.10636613742150       -2.88428072808625
C           -4.52641251953528       -1.93750071364594        0.52040787312439
O           -5.17826840100918       -3.11675734681768        0.53570236825026
C           -5.24943138340731       -3.84554872959429        1.73991774483628
C           -3.83395772165280       -1.37861491961005        1.58279020866951
C           -3.18560716850030       -0.15717577304176        1.44741348230022
C           -1.75019453396255        1.97338069583299       -1.25400061118565
C           -0.85657829116782        0.75951341953924       -1.58796224951642
C            0.37760807262853        0.67348426603034       -0.76024632408737
N            0.65019717368259       -0.38549290693494       -0.00986333215029
C            1.83873401325974       -0.46732801881089        0.83118115752157
C            2.88692881582899       -1.35277394000167        0.22715070236711
C            4.19352605979177       -1.04161388426904        0.08454941605701
C            1.33663789801420        1.80764200893575       -0.85231681563063
C            4.88613558040034        0.18891361865327        0.41513832294413
C            6.21232009058424        0.01755984382961        0.14718210007496
O            7.25209881222422        0.83757630675195        0.28051945270034
C            6.99802890913322        2.12900699324788        0.78944505168247
C            6.41177846024791       -1.34541721503439       -0.37375445796175
O            7.63304182633907       -1.76054172243800       -0.69926042979967
C            7.76397450845908       -3.08853602402488       -1.16215825143455
C            5.19777345448887       -1.96144334124696       -0.42017850955477
C           -0.19580274389045       -1.56015901138174        0.00516066358445
C           -3.65211284792584        2.96624597101722        0.10183584066387
C           -4.35465452178352        3.01248455058424        1.45683625164357
C           -3.17679716691854        4.36796736847128       -0.27174465138888
H           -3.98311921364174        0.53071574432197       -1.74875615761023
H           -6.03298410928461       -0.15044027867300       -2.69888724942559
H           -6.18694664948182       -1.74480042044263       -3.47519510788145
H           -4.60418498712387       -0.93364406195234       -3.43720011054797
H           -5.75674991164778       -3.27376004573277        2.52273602827220
H           -5.83112201548329       -4.73556973603215        1.50839864882914
H           -4.25585852415704       -4.14364509352497        2.08967560795474
H           -3.80278491295060       -1.88059310737227        2.53618345889174
H           -2.69025893266104        0.25770491915797        2.31183257726302
H           -2.47428679482975        2.07827667526227       -2.06176273197006
H           -1.14675549422444        2.87926275957437       -1.23623069170470
H           -1.45617830570501       -0.14523111734581       -1.52802432643955
H           -0.54073927235478        0.88472416540980       -2.62968410492408
H           -0.88400096329855        1.19550043684144        1.36593231828876
H            1.35445414598121        2.40128060839071        0.06389676444834
H            1.52106636383568       -0.88856188021183        1.79431074401201
H            2.23775361247508        0.52577969752213        1.01891548539147
H            2.34867905124056        1.44622793785697       -1.03854808156091
H            2.55708806149753       -2.33596534114325       -0.07508695759299
H            1.05513439529560        2.46900619169093       -1.66621871467995
H            4.42505117356700        1.07042178382435        0.81585701834317
H            6.53652396282083        2.07748050273673        1.77991943454517
H            6.34674826313432        2.69363190631384        0.11490301462024
H            7.96472579007159        2.62258046858590        0.86176874508956
H            8.82640127580598       -3.24238113269440       -1.33953724892073
H            7.40816933235137       -3.80110835710971       -0.41286645206022
H            7.20883263598171       -3.23562161636722       -2.09284879469139
H            4.97930823818068       -2.95990298073316       -0.74381852346834
H           -0.28386689808896       -1.99320482526832       -0.99239383312923
H           -1.19548557999010       -1.32024968421825        0.37769631926702
H            0.24392139877955       -2.30671518586221        0.66137368351393
H           -4.38729429907747        2.64510992100054       -0.64553220026714
H           -3.67947319893917        3.39527384729407        2.21638016335068
H           -4.70365214015363        2.02666426291840        1.75519554537572
H           -5.21465947439705        3.67425195999932        1.39961496477777
H           -2.38383312247643        4.68515749154391        0.39754144175684
H           -2.82775805859427        4.42165920815331       -1.29927427304973
H           -4.00905645015118        5.05974093688202       -0.17004305447682
H           -0.57804105979160        3.23041541086476        2.44336139531735
