  25
        -42.10604007
 C          3.2240891037        1.1179971886        0.0151009675
 N          2.2676871271        0.0442079386       -0.0007092304
 C          2.5291234740       -1.2602958032        0.0001243887
 N          1.3707908682       -1.9607825903       -0.0002584361
 C          0.3395927890       -1.0697694525       -0.0008366892
 C          0.8974655306        0.2018125706        0.0002245487
 C          0.0986633862        1.3910363783       -0.0102753363
 O          0.4820726598        2.5398341138       -0.0322609247
 N         -1.3042481268        1.0772994942        0.0061545613
 C         -2.1604892350        2.1082135962        0.0161465380
 C         -1.8748841031       -0.2321932840       -0.0004001569
 O         -3.0644092040       -0.3913400529        0.0038126544
 N         -0.9884743661       -1.3044017185       -0.0059867870
 C         -1.5164871615       -2.6561875037       -0.0101414602
 H          3.7119998799        1.1772149626        0.9892712369
 H          3.9843316341        0.9594952551       -0.7488884983
 H          2.7012547449        2.0547500107       -0.1729416595
 H          3.5073280103       -1.6978430882        0.0000580925
 H         -1.2679205839        4.8658095847        0.2408125240
 H         -1.7585017252        3.1203507676        0.0497078539
 H         -3.2147565161        1.9002402373        0.0229003161
 H         -1.2060213636       -3.1877166247        0.8895888142
 H         -1.1821509008       -3.1908022327       -0.8996120074
 H         -2.6031985672       -2.5887554114       -0.0241291680
 H          1.3009471327       -2.9681311977       -0.0025618556
