25
 energy: -42.092823384987 gnorm: 0.007777977388 xtb: 6.6.1 (8d0f1dd)
C            2.97706140252141        1.18443524847002       -0.13523513298104
N            2.12124401775893        0.02953828797909       -0.15872552268675
C            2.50031898316318       -1.22420672193704       -0.36099424336635
N            1.42581053377730       -2.02197931597302       -0.33341236732995
C            0.31847015152443       -1.24848152737102       -0.10828245039686
C            0.75918213773205        0.05745069680789       -0.00969628883587
C            0.00053305661247        1.29718448960961        0.36633038142564
O            0.51342219000921        2.17480569269179        1.02601174059652
N           -1.27386136712364        1.27710842336002       -0.04360247203311
C           -2.22131652935598        2.32976226708180        0.18062776399836
C           -1.97080755284155       -0.94410051946369       -0.36808986461363
O           -1.65460076443533        0.21855536573190       -0.96414286587573
N           -0.97236162277842       -1.77195735683267        0.00141744223368
C           -1.11711767544963       -3.01647356458043        0.44565165004827
H            2.70222975563996        1.81956369733876        0.70879884773557
H            4.01545272835082        0.87316795096763       -0.05540117072923
H            2.84144593178125        1.76691032820214       -1.04825440426595
H            3.50958896319314       -1.55173954428406       -0.52054788149983
H           -1.71762605685000        3.10188863188452        0.75988268346967
H           -2.55615136957003        2.73690685573352       -0.77333373994203
H           -3.08014929654710        1.95202861725514        0.73609903634548
H           -2.10479725836175       -3.42257808159619        0.51739597084228
H           -0.29070300240444       -3.54713992225170        0.87001977694872
H           -2.99059846087308       -1.22880763979070       -0.22618349972429
H            1.42576261862733       -3.02360381743582       -0.47516177146384
