  25
        -42.18488747
 C          3.5596274720        0.2638958714       -0.2205435045
 N          2.3919001594       -0.5637640839       -0.1207555309
 C          2.3589976744       -1.8950319645        0.0165215491
 N          1.0686756599       -2.3185118082        0.1065014307
 C          0.2642344754       -1.2262096224        0.0269346860
 C          1.0941619155       -0.1004763736       -0.1173076702
 C          0.5610401935        1.1788591665       -0.2422404468
 O         -1.0187324406        3.3369797500        0.8102231589
 N         -0.7850170072        1.2291332901       -0.2159881491
 C         -1.3860760745        2.5712582459       -0.2790491148
 C         -1.6669696681        0.1511144298       -0.0884886740
 O         -2.8617919153        0.2785915980       -0.1117560965
 N         -1.0782327466       -1.1213763949        0.0529934792
 C         -1.9352024032       -2.2776137707        0.2173351326
 H          3.9375586327        0.5150078723        0.7731549274
 H          4.3411848966       -0.2524047743       -0.7751468755
 H          3.2897633252        1.1861383373       -0.7320784423
 H          3.2143940077       -2.5375377811        0.0453896927
 H         -1.0705905312        3.0309964662       -1.2210416461
 H         -2.4719158336        2.4606585742       -0.2529307985
 H         -0.0931823408        3.6194631555        0.7367720560
 H         -1.7192099772       -2.7777244975        1.1622326406
 H         -1.8020659906       -2.9731252731       -0.6125369724
 H         -2.9667895246       -1.9275718721        0.2253288698
 H          0.7820957976       -3.2809317572        0.2113901412
