25
 energy: -42.242148672733 gnorm: 0.005854443964 xtb: 6.6.1 (8d0f1dd)
C            3.29167817351218        1.61387022433611        0.01869073556572
N            2.56740915687366        0.36813547150855        0.00932753294139
C            3.05833983303828       -0.86031316457567        0.00913600067603
N            2.05970455187006       -1.76056772270701        0.00708336540589
C            0.87581255236322       -1.08283939339757        0.00608612999754
C            1.19852865830965        0.26976148077024        0.00783175131785
C            0.16053523896002        1.27607740821577       -0.00164714957236
O            0.31422067111043        2.47236736359617       -0.01033444772770
N           -1.10941232495141        0.67177882236354       -0.00279367431229
C           -2.26332371134444        1.55552517044106       -0.00991204406244
C           -1.31385322897165       -0.67633016097712       -0.00135369385580
O           -2.57157573258558       -1.02961576651566       -0.00881281234679
N           -0.35884308856859       -1.57997692313488        0.00239337029248
C           -2.88166974129997       -2.42016958545960       -0.01079836216871
H            3.84519692628720        1.72519983217093        0.95160175662808
H            3.99446991751040        1.65393485050718       -0.81279716862800
H            2.57376096452061        2.42887508212532       -0.06938547474286
H            4.10247925733888       -1.10907446496254        0.00961434011760
H           -1.89326301118627        2.57917617623183       -0.00800362758488
H           -2.86418813073627        1.37988647643645       -0.90043734793846
H           -2.87441198528717        1.37979222623287        0.87357420797231
H           -2.51807786458786       -2.89093862385965        0.90451691974676
H           -2.42984609935169       -2.91013923953675       -0.87377895787394
H           -3.96527554255075       -2.46973621115012       -0.06424682166323
H            2.16203607382507       -2.76644078706135        0.00561708971850
