25
 energy: 57.337294120230 xtb: 6.6.1 (8d0f1dd)
C            3.02755760987819        1.21529928948495        0.09587103241975
N            2.19559960810970        0.04161087849382        0.00786699504630
C            2.60688095775474       -1.24760241197017        0.10921358535693
N            1.49304702364949       -2.06316008209563        0.01529627678475
C            0.38602016661068       -1.25235239635686       -0.01442382796881
C            0.81922942366713        0.05048494426308       -0.00255317666863
C           -0.10724466131358        1.16337377176417       -0.08122307342899
O            0.34769884919182        2.29647146251430       -0.19497073370708
N           -1.42298412478552        0.83951508762826       -0.02854246651858
C           -2.15914705138994        3.02900318563738        0.03206791285239
C           -1.89744625550940       -0.42338702645130       -0.02621422561770
O           -3.05787752342609       -0.75799047413561       -0.03330401314703
N           -0.91468643418923       -1.54849991204420       -0.04222143385276
C           -1.31980236884834       -2.92669948572122       -0.06850450340238
H            3.21524321304970        1.46320298200504        1.14003267010300
H            3.97996347196549        1.03362118154972       -0.37478185166112
H            2.44890966627807        2.03140359735632       -0.35642140735125
H            3.59061388222215       -1.55599878051682       -0.12541992873032
H           -1.19686048788087        3.47103878844715        0.10884637451895
H           -2.62711181427510        3.01590937150570       -0.91330057249237
H           -2.74570744303072        2.95890438810167        0.90529910923411
H           -0.92709807668118       -3.43045225296751        0.81894169664026
H           -0.89010890182655       -3.40505324245867       -0.95206067751053
H           -2.41708456022517       -2.92882475297820       -0.08371145938581
H            1.53371786735580       -3.07006827804493       -0.00597444778302
