25
 energy: 54.147144490544 xtb: 6.6.1 (8d0f1dd)
C            2.96684319159421        1.19168307444390        0.06942246664281
N            2.19638814241833       -0.02196528920035        0.02536542110719
C            2.66582316544441       -1.26305542252241        0.01894681781757
N            1.62404851741734       -2.13405150090723       -0.00581450680807
C            0.45869011813870       -1.40489010910181       -0.01428344912928
C            0.83019887457446       -0.06845795688164        0.00911711924540
C           -0.20792935735831        0.99187513712945       -0.02836347384185
O            0.10173051103779        2.17467309105818       -0.04836396506287
N           -1.45412740251224        0.51245863366960       -0.04529721933051
C           -2.33679011464621        3.97036861795370        0.00558296251725
C           -1.86206760663786       -0.72650337311565       -0.05026782241709
O           -2.99105840400451       -1.14259622999065       -0.06382152358586
N           -0.79781569343136       -1.81811879481214       -0.04306588624754
C           -1.19369942678864       -3.20133416468045       -0.06678098426368
H            3.22175026390506        1.43973040036331        1.10146424163675
H            3.88320871540340        1.07867197307210       -0.50802170660580
H            2.35327143480925        2.00032204628824       -0.33068188400114
H            3.69695679493940       -1.54531896288394        0.02921847300271
H           -1.27321712119860        4.05872272274116        0.04432936241564
H           -2.82768373163528        3.87218509739848       -0.93838575736462
H           -2.89034586212487        3.79733340441702        0.90291766721983
H           -0.85071789582120       -3.72470798893284        0.82910140545481
H           -0.81653489235136       -3.70500919070368       -0.96025567463493
H           -2.28519992040591       -3.20517557572615       -0.08741587763545
H            1.70049200420755       -3.13781085032676       -0.01761229393863
