25
 energy: 57.710885521803 xtb: 6.6.1 (8d0f1dd)
C            3.00435145314930        1.21398717017644        0.09226370661262
N            2.19848984528808        0.01940244691814        0.03398816416726
C            2.64048621386272       -1.25271914654417        0.08772129768636
N            1.54847937932032       -2.08879751684745        0.00415234455940
C            0.41664612194274       -1.30882762112248       -0.01264199519669
C            0.82934327619812        0.00330405225227        0.02300953814033
C           -0.15052618308409        1.09637927818290       -0.07130562168241
O            0.26860665816402        2.23646275391539       -0.19146476411657
N           -1.42865662212796        0.72364106051385       -0.03426951770134
C           -2.21489375214201        3.31859153949163        0.03840639038111
C           -1.87663474777880       -0.52201803912443       -0.03139162616209
O           -3.02900015539087       -0.87956048155271       -0.03421866433841
N           -0.86940175835827       -1.64143720503235       -0.04378624052368
C           -1.28118953585988       -3.01582282172895       -0.07417206678165
H            3.10794266302397        1.56435372215799        1.11973939915759
H            3.99658634439451        1.01337919240166       -0.28600714217054
H            2.49204969015052        2.00223035145808       -0.46416955213395
H            3.63699439189333       -1.55581786202879       -0.17050683187593
H           -1.21800289377072        3.67266396857718        0.13229608416516
H           -2.66623521395797        3.27518448654279       -0.91857262612820
H           -2.82493894396831        3.19996795593768        0.89843048436127
H           -0.90979009599681       -3.52893897422312        0.81498102528008
H           -0.87302456460799       -3.50131819454862       -0.96300606130618
H           -2.37938533929664       -3.01450045570976       -0.08785475594385
H            1.59767712699427       -3.09709876832567       -0.00101737860246
