25
 energy: 11.627107008634 xtb: 6.6.1 (8d0f1dd)
C            3.10473549670629        1.22059450793727        0.10136800725432
N            2.23776531034683        0.08365206436279        0.00646583154788
C            2.59637827074131       -1.25711989732630        0.10329223914451
N            1.42665179908570       -2.00780137124127        0.00145580978107
C            0.37143257950337       -1.15997945622481       -0.02254422729213
C            0.84192665756151        0.13831633938984       -0.01164827767437
C            0.00571277044450        1.26812826199359       -0.04212121783466
O            0.45589404080127        2.41970226797264       -0.08866245583950
N           -1.42206960711756        1.04828300411743       -0.02750093104506
C           -2.10555383397963        2.44775410077017       -0.00974331899479
C           -1.91831293243194       -0.26791544158084       -0.03848484753606
O           -3.09089993501939       -0.56594631215576       -0.06117141459247
N           -0.97208902208202       -1.39130628281400       -0.04279486784892
C           -1.39581612845166       -2.77557654953269       -0.06160258626750
H            3.46500215130531        1.38846824798024        1.11902772231299
H            3.95244074701311        1.10053471213720       -0.54313246181477
H            2.50130267343074        2.08269547829250       -0.20330432664141
H            3.58885017251147       -1.60190771533339       -0.12218568903500
H           -1.27366499796830        3.15471394287898        0.02401290702677
H           -2.70703189392666        2.59539358267850       -0.91506751018237
H           -2.76420644743499        2.56114414785567        0.84975483023857
H           -1.02588720851447       -3.30516446233285        0.82412850324278
H           -1.00128899966637       -3.28797217443707       -0.94600846625072
H           -2.48736064366186       -2.76602190807354       -0.07779429077507
H            1.43076163005440       -3.01798225878011       -0.00190914658862
