  25
        -42.15886268
 C          2.9325839966        0.8746916244       -0.3630832566
 N          1.9066318075       -0.1156301221       -0.0988920729
 C          2.2201432139       -1.3133421754        0.3382393456
 N          1.2855569651       -2.2332084698        0.7117377437
 C         -0.0893876494       -2.0717017766        0.3949645458
 C          0.5845292977        0.2437236601       -0.3115768605
 C         -0.0127772117        1.5160627391       -0.1467120985
 O          0.4425833671        2.6329335040       -0.1769674921
 N         -1.4168093845        1.2500567589        0.0577049603
 C         -2.3705752457        2.3222435285        0.2435793720
 C         -1.7204304594       -0.0364464647        0.1372583831
 O         -2.7090527320       -0.6628090215        0.3471438811
 N         -0.4140635400       -0.7720895301       -0.1640478615
 C         -0.4985035453       -1.9522195344       -1.0244033237
 H          3.5521742046        1.0173923101        0.5235714507
 H          3.5648554192        0.5543065234       -1.1931800134
 H          2.4544492622        1.8212221933       -0.6146206617
 H          3.2567402911       -1.5724654408        0.4697270071
 H         -1.8057920538        3.2146158091        0.5109656331
 H         -2.9159878377        2.5063759135       -0.6825016664
 H         -3.0730476065        2.0595907777        1.0319013791
 H         -0.7783937924       -2.4726175602        1.1268294787
 H          0.2515596123       -2.0356689917       -1.8002046827
 H         -1.5065875813       -2.2290845789       -1.3141152506
 H          1.5999036565       -3.1689843832        0.9212375944
