25
 energy: 129.801675212600 xtb: 6.6.1 (8d0f1dd)
C            2.08522705942634        1.78611982913419        0.10943569922659
N            2.12179932071434        0.38435802101053        0.09167715784049
C            4.89393163796658       -0.47059430026674       -0.29032844809785
N            1.04042648604635       -2.36857541432032        0.04458713725156
C            0.29146983157109       -1.34255168777306        0.03415411942725
C            0.86813630140982       -0.00832640190701        0.06982917904820
C           -0.01778886120748        1.10511110576461        0.06983001440723
O            0.68334876020472        2.23146460968296        0.10213223551923
N           -1.35091121683031        1.02751694495721        0.04956623530046
C           -2.23523468112382        2.18570600885523        0.06899599479307
C           -1.96104671613774       -0.24160890968793       -0.01544562068984
O           -3.17077171446364       -0.31350470186856       -0.07088409708963
N           -1.12903934143682       -1.33679726422807       -0.02269356181884
C           -1.78697040123306       -2.63455901914895       -0.10599932124890
H            2.51394663643922        2.23404354132293        1.02550623414294
H            5.98721216142736       -0.23639902549190       -0.22642384901711
H            2.56896687587848        2.25708852776033       -0.74733005219433
H            4.82924338842346       -1.57918374920626       -0.20310997946105
H           -1.63394197923725        3.08879345276643        0.12350878401341
H           -2.85452841192880        2.19871861441647       -0.82932277309224
H           -2.90931236678411        2.13199050914195        0.92603123605812
H           -1.60838750889662       -3.22900287791650        0.79261455121539
H           -1.45223497365250       -3.18826981602686       -0.98552081118213
H           -2.85367007715107       -2.44570721026013       -0.19080404247510
H            0.61391668376916       -3.29033769193994        0.00602283791565
