25
 energy: -42.131800283221 gnorm: 0.006777587744 xtb: 6.6.1 (8d0f1dd)
C            3.14863754720044        1.43787843334148        0.02347947151017
N            2.35447782825271        0.29275133416883       -0.00373206323249
C            2.57469463679496       -2.34177581206320       -0.02041187006802
N            1.28731286241983       -2.23694718271618       -0.01019544514648
C            0.47787975485532       -1.11177941484726       -0.00509641911474
C            1.06179970247877        0.17505175509769        0.00122434632940
C            0.14098244321031        1.34932857432286        0.00335591752478
O            0.54158746972958        2.49582255466334        0.00857529078447
N           -1.20260512138810        1.05111290815824       -0.00586347583596
C           -2.15683764458752        2.14941619315112       -0.00966476731438
C           -1.76188608403348       -0.21179099899254       -0.00465314266083
O           -2.95583887880064       -0.37703840126935       -0.00565195281841
N           -0.87525571757110       -1.28912187286036       -0.00225691950930
C           -1.47146166425144       -2.61296912375850        0.00374582675974
H            3.70690248915828        1.47392124973689        0.96600455643111
H            3.87995710355768        1.39161458561318       -0.78982693827418
H            2.54855863684932        2.35303881325884       -0.07036071330792
H            3.24552515652938       -1.49246843312250       -0.02561448864493
H           -1.60727220005749        3.08846037881165       -0.00338316266175
H           -2.78730932805931        2.08517047313584       -0.89781083639597
H           -2.79992228015493        2.08061456841368        0.86905242080666
H           -1.19572098539404       -3.16578949129168        0.90400418680763
H           -1.20390603387998       -3.17123484851438       -0.89563137777721
H           -2.55461227383091       -2.47518097916711        0.00801762899244
H            0.76474409507239       -3.11984672167049       -0.00613445528389
