25
 energy: -41.964535037217 gnorm: 0.003165159474 xtb: 6.6.1 (8d0f1dd)
C            3.68283133808777        0.80677385025494       -0.14463447432425
N            3.22919730475683       -0.56719002219042       -0.06710198089277
C            3.63718018140110       -1.78918010513082        0.10921867420476
N            2.72801885167149       -2.85948019609656        0.13154678721670
C            1.44894832019963       -2.75874853237834        0.07791322103047
C            2.30862875696071        0.32112222844203       -0.34150726719521
C           -1.62346617087037        1.64922034645531        0.27490687014360
O           -0.88346342411845        0.74271575446394        0.24261398297464
N           -2.39848907779524        2.50708154566539        0.49113839879671
C           -3.18975890008348        3.62396472770095        0.16640651482822
C           -3.63138164203939       -0.48710218549163       -0.60483134667298
O           -4.51153749888787        0.21689832046747       -0.68060987763815
N            0.33099396040077       -2.63276395681043       -0.29492950705002
C           -1.01945221145055       -2.47463749622323        0.01746108295753
H            4.00343601282519        1.26418524392361        0.78749173372154
H            4.27953192956144        1.08621302609929       -1.00627563473943
H            1.28238338775641        0.48606094590782       -0.12739974090232
H            4.67658998817011       -2.02379362171636        0.23366729366164
H           -2.60279851413608        4.53616875470838        0.27790051045204
H           -3.56512818600750        3.55356098364587       -0.85613797006656
H           -4.02990410838342        3.65338029170996        0.86005469740026
H           -1.27916674003842       -2.92936380492195        0.97479006433661
H           -1.60595109293087       -2.91942451247926       -0.78560408257318
H           -1.24436142698085       -1.40423880171198        0.05179277157652
H            3.13755047600328       -3.78318424267728        0.24330089661372
