25
 energy: 0.000000000000 xtb: 6.6.1 (8d0f1dd)
C            3.23720163006194        1.16630919979326        0.08434469647475
N            2.29877817382611        0.07527477071623        0.03981603040599
C            2.58028210190900       -1.21425402444508        0.03006176031096
N            1.43813958087363       -1.93419271955128        0.00098261760884
C            0.39035688448383       -1.05887472636071       -0.00790371836672
C            0.93510056364412        0.21347819449412        0.01709077491437
C            0.09450143893243        1.40504303904423       -0.00410947031874
O            0.49712751527797        2.54126714362870       -0.00342325688240
N           -1.25076640035757        1.06271879480407       -0.03085478223738
C           -2.21907211982101        2.15522099834493       -0.05001256985998
C           -1.81739487048744       -0.20012725993278       -0.04692818574614
O           -2.99983886758376       -0.37846417018721       -0.07008878229737
N           -0.92618586207120       -1.30210215599479       -0.03682761578324
C           -1.46982264913417       -2.64643102187190       -0.06029820460571
H            3.71247264356769        1.21471455160235        1.06488849150277
H            4.00791497605742        1.03430808813993       -0.67357694370751
H            2.69910007168542        2.09770118228144       -0.09130154882931
H            3.56654120610678       -1.63682992603973        0.04233140067262
H           -1.67107961066214        3.09322851271934       -0.02552706933167
H           -2.82428953597071        2.09428624779827       -0.95318082946668
H           -2.87644029173232        2.07745725625962        0.81450067533302
H           -1.17061996399332       -3.19584890659852        0.83242232437030
H           -1.14560257411436       -3.17511610292205       -0.95688275822323
H           -2.55549792440841       -2.55659984320617       -0.07459039797972
H            1.38130855184625       -2.94313852034425       -0.01389874181052
25
 energy: -1.339835078539 xtb: 6.6.1 (8d0f1dd)
C            3.23372052798237        1.17974696295312        0.08612342241721
N            2.29662097087197        0.08959461898190        0.03773578807575
C            2.59041593000717       -1.24306711086547        0.03035401193632
N            1.44039279434041       -1.99964808564646        0.00016982472263
C            0.40333253232979       -1.08260877832477       -0.00839950548610
C            0.92243114029737        0.21248360950341        0.01510717479496
C            0.09643419115377        1.40111124965909       -0.00468260183658
O            0.49285901041988        2.56825008211502       -0.00341276928757
N           -1.26659075543552        1.06605141530082       -0.03087100369263
C           -2.23204336593105        2.16364033133303       -0.05006703534506
C           -1.82224169701448       -0.18804353115299       -0.04712912220738
O           -3.01918557323844       -0.36851917840805       -0.07051926960983
N           -0.93262467871903       -1.29516170655687       -0.03682035711098
C           -1.46993598663873       -2.63036326011169       -0.05980648977324
H            3.71608757150904        1.23016251941630        1.06644207805593
H            4.00476187346629        1.04675294080623       -0.67455899428943
H            2.70219582579029        2.11486726940057       -0.08939605066655
H            3.57293072372220       -1.64637633998480        0.04352548071344
H           -1.68205237726593        3.10237843910779       -0.02545884953812
H           -2.84052320549705        2.11068001502153       -0.95297873104575
H           -2.89346075125325        2.09380866787173        0.81346158951370
H           -1.15358602023324       -3.17220132523692        0.83269026076861
H           -1.12914553949355       -3.15142009584247       -0.95574430059024
H           -2.55482721305953       -2.54260976357098       -0.07381085170448
H            1.43624873982550       -3.07048034359704       -0.01491980266734
25
 energy: 6.859362211603 xtb: 6.6.1 (8d0f1dd)
C            3.22893168105385        1.18482484113740        0.08721892721894
N            2.29121554148259        0.09554134990563        0.03436719149193
C            2.59235536107307       -1.26480740030072        0.03132521111945
N            1.44043150009652       -2.05965542453811       -0.00023475448811
C            0.41385825300986       -1.10857226531083       -0.00913696251955
C            0.90804945727711        0.20236497028268        0.01269671935507
C            0.09726642484158        1.38660818122437       -0.00512352392826
O            0.48287559726691        2.56682425658074       -0.00307481841935
N           -1.28573468156746        1.07551389136036       -0.03082563149312
C           -2.24590632570022        2.17890339636960       -0.05015845936175
C           -1.82428650395639       -0.17090170786210       -0.04719929049568
O           -3.02581601377129       -0.35902210810608       -0.07097534080825
N           -0.93938216965822       -1.27968307597097       -0.03665506391279
C           -1.46968170953922       -2.60979819439708       -0.05920849328344
H            3.71688576321314        1.24218761479931        1.06669580180948
H            4.00117857467305        1.05891226322266       -0.67564036205521
H            2.70232341445393        2.12439722482067       -0.08672257058815
H            3.57781068137528       -1.64387195353641        0.04525406868196
H           -1.69443881684328        3.11786153304781       -0.02516500619825
H           -2.85762219800402        2.13136322346175       -0.95242785167891
H           -2.91159401879230        2.11424766388367        0.81173308634828
H           -1.13671256895490       -3.14558334867370        0.83204123386929
H           -1.11319958785956       -3.12485752805683       -0.95362542926052
H           -2.55415876292574       -2.53233118505728       -0.07282675603696
H            1.51756577569191       -3.19143761611452       -0.01529802921878
25
 energy: 12.280012647529 xtb: 6.6.1 (8d0f1dd)
C            3.22698691116252        1.18419646161467        0.08734162993779
N            2.29012149926592        0.09454249898524        0.03227686249734
C            2.58988628417155       -1.27231328097711        0.03213825911733
N            1.43845069009600       -2.07922580692622       -0.00013398430476
C            0.41667723811865       -1.11801658516019       -0.00952723941362
C            0.90383305985304        0.19585640647451        0.01172360237504
C            0.09783770136835        1.38086505398175       -0.00508043419182
O            0.47888955524501        2.56067390753649       -0.00276183211268
N           -1.29426771844808        1.08414460443312       -0.03077873273779
C           -2.25230855282937        2.18814303655329       -0.05030613334067
C           -1.82586822487116       -0.16279986218147       -0.04722371139756
O           -3.02643115805417       -0.35880485361699       -0.07134214316695
N           -0.94137964086811       -1.26907809577240       -0.03638113261343
C           -1.46859107558936       -2.60081613081220       -0.05880185104719
H            3.71501501447992        1.24443595413349        1.06673346550043
H            3.99922379158663        1.06356268169536       -0.67636268671020
H            2.70031295891048        2.12514666099520       -0.08536475600909
H            3.58024239393100       -1.64056160756427        0.04570900287638
H           -1.70142207277089        3.12715200186103       -0.02492650897646
H           -2.86464340544381        2.14079178774027       -0.95245850465179
H           -2.91931641299820        2.12338620143556        0.81085623283267
H           -1.12909219473847       -3.13363610931432        0.83181570937326
H           -1.10620174955806       -3.11298818256824       -0.95256730333362
H           -2.55326486354285       -2.53210742015680       -0.07218352469155
H            1.55752463945964       -3.24352072021776       -0.01536038966379
25
 energy: 14.440661863830 xtb: 6.6.1 (8d0f1dd)
C            3.22714996673557        1.18326067221488        0.08735147423876
N            2.29112774910614        0.09314050250521        0.03122952922770
C            2.58705573904941       -1.27349528890545        0.03290259029098
N            1.43561101069269       -2.08009188008164        0.00015202492767
C            0.41610271239344       -1.11853687654633       -0.00965564242200
C            0.90407653639737        0.19425756101746        0.01148646221942
C            0.09841691234148        1.38076821627612       -0.00506673957387
O            0.47762396476246        2.55857322530243       -0.00259653600486
N           -1.29625687343761        1.08811790427022       -0.03077856707219
C           -2.25393793148237        2.19076781976080       -0.05039483105273
C           -1.82725564885828       -0.16060155951116       -0.04724454778399
O           -3.02643102722571       -0.36039857631795       -0.07150537486218
N           -0.94187795324049       -1.26403949582167       -0.03612387398002
C           -1.46768776176140       -2.59851434258009       -0.05861289391905
H            3.71423917497998        1.24398861658772        1.06688383768036
H            3.99916826391729        1.06450102587396       -0.67644644162522
H            2.69964545424361        2.12430449766050       -0.08507394774265
H            3.57950735385184       -1.63860975316633        0.04521123560415
H           -1.70400377202350        3.12998920234306       -0.02484229206581
H           -2.86603960474660        2.14251040990514       -0.95269882034007
H           -2.92096740703238        2.12493259271733        0.81071872715371
H           -1.12655731212829       -3.13000368682337        0.83185519748753
H           -1.10387214323656       -3.10931538463035       -0.95229867902621
H           -2.55241324428233       -2.53386582136393       -0.07194861493580
H            1.56979050892045       -3.26261097851454       -0.01546938027632
25
 energy: 15.919353558796 xtb: 6.6.1 (8d0f1dd)
C            3.22767159166412        1.18285268029992        0.08737011018604
N            2.29268221177637        0.09193696062940        0.03037871534447
C            2.58454164014415       -1.27312888962766        0.03412791918075
N            1.43284435024813       -2.07560090318195        0.00059707531171
C            0.41468387218677       -1.11673186185987       -0.00978239445766
C            0.90539351318628        0.19455488705634        0.01140599084022
C            0.09902618407974        1.38212773223892       -0.00516332829183
O            0.47697482837798        2.55858369782234       -0.00251205128227
N           -1.29611388663883        1.08957448846229       -0.03080233399637
C           -2.25395554322729        2.19089240954112       -0.05042515288303
C           -1.82852390120141       -0.16036062601415       -0.04725108974645
O           -3.02662617981394       -0.36126889935486       -0.07155660100361
N           -0.94225922519563       -1.26135455446972       -0.03588673143815
C           -1.46705947720600       -2.59814537802518       -0.05854310618912
H            3.71392894173717        1.24363570237919        1.06706198957728
H            3.99973422997337        1.06485331055623       -0.67618085091353
H            2.69943733899024        2.12362010129830       -0.08518118592723
H            3.57790615100482       -1.63740125934678        0.04410152151991
H           -1.70518452997432        3.13062826993524       -0.02480663291929
H           -2.86601107157843        2.14220672529310       -0.95279311640338
H           -2.92097848962453        2.12451086022341        0.81071855759043
H           -1.12533983049097       -3.12855912046989        0.83195546784999
H           -1.10269744302390       -3.10773825612290       -0.95234918840672
H           -2.55172780618878       -2.53509603251470       -0.07189395124841
H            1.57386719873111       -3.27556344257610       -0.01555573614642
25
 energy: 16.746889520872 xtb: 6.6.1 (8d0f1dd)
C            3.22787332787233        1.18324268936271        0.08739315217199
N            2.29356520635968        0.09168456776953        0.02994342689852
C            2.58377114067547       -1.27244952478326        0.03554439641959
N            1.43197062139007       -2.07118309825163        0.00098411944592
C            0.41384931741098       -1.11502484690102       -0.00993164252182
C            0.90626550977993        0.19594421254956        0.01139980281195
C            0.09928368195674        1.38342959050485       -0.00527824919567
O            0.47686503064847        2.55998225138860       -0.00254482556848
N           -1.29521946895496        1.08903621289312       -0.03082358627898
C           -2.25336026267444        2.19002222793245       -0.05040882078976
C           -1.82897854561611       -0.16093875478807       -0.04723898357070
O           -3.02694470054138       -0.36070821561871       -0.07151086771544
N           -0.94250512450223       -1.26127801923361       -0.03578966244482
C           -1.46693404866104       -2.59868084416818       -0.05857652403327
H            3.71385796848816        1.24393639279477        1.06719728785332
H            4.00023636889644        1.06515067702888       -0.67585815186287
H            2.69935537756936        2.12367466062427       -0.08540753198675
H            3.57703803412883       -1.63722888395585        0.04281665678186
H           -1.70516848488215        3.13016687922113       -0.02481094913309
H           -2.86556113983322        2.14146911416236       -0.95274731805989
H           -2.92044855164461        2.12375204626664        0.81076082776054
H           -1.12529120641732       -3.12879031004137        0.83196003151142
H           -1.10259062459737       -3.10786509466264       -0.95246076027835
H           -2.55154103798405       -2.53513924641224       -0.07195653735310
H            1.57282627906865       -3.28317608151026       -0.01562139471481
25
 energy: 17.361602140576 xtb: 6.6.1 (8d0f1dd)
C            3.22783976309392        1.18393804317843        0.08743035599610
N            2.29373443612064        0.09208991820961        0.02980497624493
C            2.58409976842388       -1.27187755063388        0.03720796480944
N            1.43251401751664       -2.06843126377342        0.00130404072132
C            0.41369801773377       -1.11405869842185       -0.01012996573684
C            0.90644710729025        0.19752504990608        0.01139688459813
C            0.09921891130724        1.38429781097204       -0.00536709952388
O            0.47697198521208        2.56150371217779       -0.00265492433778
N           -1.29457805694187        1.08816235835346       -0.03084219237336
C           -2.25298344817916        2.18939394538051       -0.05038936918710
C           -1.82884110931090       -0.16139016087986       -0.04722964409469
O           -3.02713997164157       -0.35965141605041       -0.07143313308601
N           -0.94261191233914       -1.26220094209525       -0.03581163329939
C           -1.46703386093969       -2.59917614383202       -0.05863824928093
H            3.71386382313049        1.24451574432392        1.06729265890321
H            4.00050111505846        1.06547732620731       -0.67562133124996
H            2.69933634345874        2.12416134510206       -0.08556106853682
H            3.57696710717180       -1.63737591909838        0.04133983311933
H           -1.70480224736538        3.12965711014180       -0.02483532289287
H           -2.86528678687577        2.14102358850405       -0.95268992202648
H           -2.92009238465158        2.12333598947105        0.81080216214242
H           -1.12570368594599       -3.12950298175807        0.83191314495615
H           -1.10292919086826       -3.10855788754330       -0.95252228070409
H           -2.55163739285463       -2.53464729233686       -0.07203639920571
H            1.57066232033225       -3.28918308333277       -0.01569558980785
25
 energy: 17.679620515138 xtb: 6.6.1 (8d0f1dd)
C            3.22777435492848        1.18436355892577        0.08747333801704
N            2.29340381963385        0.09265081768405        0.02993848282435
C            2.58473569767677       -1.27153960321524        0.03859935791199
N            1.43354502256296       -2.06794934944246        0.00148177661039
C            0.41397066710639       -1.11399014577783       -0.01031529012188
C            0.90612820641707        0.19832335523444        0.01136978641118
C            0.09898544102965        1.38451252064388       -0.00540871701244
O            0.47711174887637        2.56212835479778       -0.00276315031040
N           -1.29455244594750        1.08785411985151       -0.03085976759861
C           -2.25306922390219        2.18940211006544       -0.05038824496642
C           -1.82847902197830       -0.16139872375465       -0.04723684942308
O           -3.02708650102964       -0.35910995738535       -0.07137770082397
N           -0.94256166324317       -1.26294617689070       -0.03591977246136
C           -1.46715163989517       -2.59924980240838       -0.05868054964538
H            3.71393576720404        1.24485941169638        1.06732249651700
H            4.00049416546194        1.06559372846944       -0.67556869068897
H            2.69945422336393        2.12460763595129       -0.08556864789667
H            3.57734689572780       -1.63737540297253        0.04011494915698
H           -1.70457938846537        3.12951726056820       -0.02486053701109
H           -2.86534257909836        2.14104008817675       -0.95267690310481
H           -2.92011843238147        2.12338498846640        0.81081556466672
H           -1.12607131237890       -3.12992416844801        0.83188131772348
H           -1.10326779693383       -3.10905071321194       -0.95252401518339
H           -2.55179284123233       -2.53423200736394       -0.07207507843280
H            1.56940150443319       -3.29244329748829       -0.01573925901059
25
 energy: 17.827619062044 xtb: 6.6.1 (8d0f1dd)
C            3.22778459910205        1.18450150788898        0.08752904652479
N            2.29292223237280        0.09314860934969        0.03027178024177
C            2.58527543045451       -1.27122298333483        0.04020192259505
N            1.43456192864265       -2.06843973354120        0.00162608616803
C            0.41431843261319       -1.11431489671775       -0.01054714155346
C            0.90567475090162        0.19848672973245        0.01128779219945
C            0.09872437765904        1.38441816459577       -0.00544966042541
O            0.47724397999510        2.56211303042775       -0.00285923632312
N           -1.29485078557125        1.08800880828903       -0.03089094307869
C           -2.25338345537343        2.18973318769130       -0.05040048145401
C           -1.82814938571938       -0.16116537524624       -0.04726539220857
O           -3.02689230118621       -0.35913207885473       -0.07133054925308
N           -0.94241955234989       -1.26331866275336       -0.03610884565289
C           -1.46722373349880       -2.59908543575581       -0.05871485274755
H            3.71406624205030        1.24494187681712        1.06731788198045
H            4.00035759340785        1.06547118334192       -0.67562570514231
H            2.69970288300993        2.12490283281706       -0.08550152277503
H            3.57778541417290       -1.63714555248585        0.03870708063920
H           -1.70454742871848        3.12961851544076       -0.02488151370646
H           -2.86556194277014        2.14127323349562       -0.95269292737879
H           -2.92033383923965        2.12363304300437        0.81081227404978
H           -1.12628559843778       -3.13002383130628        0.83187819790531
H           -1.10350007881196       -3.10929596326232       -0.95251141997050
H           -2.55190561264367       -2.53402736543856       -0.07208596553078
H            1.56885051787494       -3.29405024202280       -0.01573200895593
