72
 energy: -99.336976201083 gnorm: 0.002927417009 xtb: 6.6.1 (8d0f1dd)
N           -1.61975179195160        2.91780471194792        2.30296058288506
C           -1.59662804937658        2.12779412525442        1.33619182478129
C           -2.79157658139684        1.93549396111845        0.43515942950561
C           -3.28152763813198        0.49873041283951        0.49648013017999
C           -4.31396987705796        0.10110667991838       -0.35569426884649
C           -4.81267623447503       -1.19018030556668       -0.33250288388650
O           -5.80903268175191       -1.65522907814437       -1.11266255405754
C           -6.48185736749388       -0.76434827319627       -1.97157984589142
C           -4.26104561118957       -2.13579224735065        0.57500625213371
O           -4.80346809148257       -3.36910933835076        0.52829218642506
C           -4.39447258990209       -4.33377723038307        1.46959802508476
C           -3.24329847739973       -1.73025408490468        1.42314143483551
C           -2.76119376435151       -0.42684840217778        1.38561487882791
C           -2.33363020283728        2.27231142812426       -1.00836832623206
C           -1.45257101210819        1.19109058982854       -1.65969033414852
C           -0.09845618373026        1.10218479939373       -1.07291181344589
N            0.53510245968457       -0.02117683453582       -0.76144424040376
C            1.90930880351432        0.01302101091315       -0.31968552876229
C            2.88806927978172       -0.38151139029102       -1.44234161271059
C            4.30343181829758       -0.18861077147676       -0.97382705691278
C            4.94420045613085        1.02627187784820       -1.15449347614602
C            6.24041308865163        1.22017244178477       -0.70286917124823
C            6.92130635723098        0.20045704823696       -0.05379386228209
O            8.17817484005305        0.27294686699746        0.42131381081017
C            8.91454288167743        1.46069978315492        0.23987435602681
C            6.26896711128325       -1.04836647826241        0.14357662385553
O            7.00327442882763       -1.98150918823940        0.78112268493861
C            6.45751265924584       -3.26061305518148        0.99811238371537
C            4.97248390691124       -1.21824560079146       -0.31607603822566
C           -0.07748760075359       -1.31796944545733       -0.92249291633279
C           -3.89122311515057        2.88715502154220        0.90609883751391
C           -4.84440880117959        2.48130176913366        1.73406910000750
C           -3.79542854510164        4.31554966858005        0.46998426316062
H           -4.74997468462976        0.82707275761095       -1.02185788236164
H           -6.93404457044854        0.06168299116452       -1.41508683542772
H           -7.26378959212503       -1.35302976625498       -2.44748641673355
H           -5.81253898614303       -0.36505879630400       -2.74069206297131
H           -4.56848793781920       -3.99224377251961        2.49417364910935
H           -5.00696155556558       -5.21148772916335        1.27306468906284
H           -3.33847180901985       -4.59490895424462        1.34556761189035
H           -2.82263799046526       -2.42048853009171        2.13639627947400
H           -1.99202676485488       -0.14090087410697        2.08630918189352
H           -3.21866854542964        2.39739987698495       -1.63155791910512
H           -1.79479194916946        3.22039455903711       -0.99923770871756
H           -1.96867084665525        0.23292759441340       -1.62914791493086
H           -1.33916054282221        1.47312524222670       -2.71491573524134
H           -0.71479180626595        1.54182836524103        1.02334751470288
H            0.46505447684587        2.01834742782812       -0.97854119278735
H            2.03081960167917       -0.66952108015232        0.52593501869315
H            2.15337090151786        1.02198480548371        0.01926184265909
H            2.69643982574473        0.25059859782080       -2.31109982710042
H            2.72266399977263       -1.42093982218404       -1.72773109670456
H            4.43921852176697        1.83280583237299       -1.66422439421667
H            6.71547746111971        2.17337936984988       -0.86678654647018
H            8.44084498113087        2.30762224842989        0.74570004227136
H            9.04276365896820        1.69330976746546       -0.82152976942345
H            9.88803286263076        1.27173167511428        0.68821936743300
H            7.24093169849728       -3.83205869231843        1.49206531326579
H            5.57818357220638       -3.21629508309803        1.64883937392663
H            6.19268997283669       -3.74983214682881        0.05570205548460
H            4.47251112378103       -2.16431614934668       -0.17875712199229
H           -0.24335190861745       -1.54604736966808       -1.97756335775636
H           -1.03586501887531       -1.35649367284201       -0.39926393805823
H            0.57623798303546       -2.07784718163989       -0.50217835285087
H           -7.43324907611535        2.58157678022388       -0.45408503580374
H           -5.58148470594611        3.17029725417247        2.10966341617522
H           -4.92430159538150        1.46567976841697        2.08221860286597
H           -6.78376526876734        2.56989278828457       -0.01783110400938
H           -4.52413638829771        4.91481510156771        1.01141059692267
H           -2.80108215705320        4.70836045858924        0.68495836389182
H           -3.99278271343909        4.42371800516429       -0.59732306164771
H           -0.77677250511625        3.01650740348454        2.85916632204444
