72
 energy: -99.679218960181 xtb: 6.6.1 (8d0f1dd)
N           -1.68567358841730        2.88290933636237        2.52605266945534
C           -1.60825409082296        2.27382079525250        1.42963490450594
C           -2.70118018831759        2.12109323608182        0.38744687558799
C           -3.20303012989543        0.67751681639824        0.47352892311258
C           -4.22564234217170        0.31983360597183       -0.40300457898531
C           -4.84585137684798       -0.90225784929255       -0.37631281950831
O           -5.89549934014752       -1.24267648666051       -1.17503421715320
C           -6.42577165427346       -0.25880121579644       -2.02827286608065
C           -4.38144910686813       -1.87747254169697        0.52815395456525
O           -5.02445057339440       -3.07396755459057        0.45055292235662
C           -4.64505644666192       -4.09821735333823        1.32797518058340
C           -3.34850629093045       -1.54803560170781        1.38657615819568
C           -2.77129177832656       -0.27745484854462        1.37466578296876
C           -2.02001030595053        2.39540711899758       -0.96975454037927
C           -1.17744891473880        1.24471410161854       -1.53764111453205
C            0.13996357148246        1.13085204012761       -0.87526677546165
N            0.71666566337713       -0.06053085445208       -0.47681384284227
C            2.10482767180198       -0.08887758579841       -0.13538674026714
C            3.03130618440324       -0.54511933144093       -1.28948183447656
C            4.46129223980205       -0.46233728760260       -0.85484450710310
C            5.18589276642738        0.70469227712393       -1.01680840886548
C            6.49823991451415        0.79566572549969       -0.57570028187171
C            7.10765166106184       -0.28122101664811        0.04336742750551
O            8.39014596493591       -0.30874563619043        0.50890756228521
C            9.19005614061473        0.83196554733537        0.33758828033271
C            6.37452802161586       -1.47578705563170        0.22466943427529
O            7.05629696747509       -2.48348880792229        0.84115219808706
C            6.40991713203971       -3.71337411985090        1.03980924035572
C            5.06833225004646       -1.54770466544039       -0.22021101189779
C            0.03207677414559       -1.31179856427611       -0.64675412983156
C           -4.03697289094533        2.94636913931276        0.40402620979684
C           -4.69493097774936        2.68453480287011        1.77788181914940
C           -4.10403390432605        4.40583893854632       -0.09912056701063
H           -4.57986792978172        1.05080014894295       -1.10259156698605
H           -6.80635353529112        0.60550306751616       -1.47123488883277
H           -7.25222082929089       -0.74181031655190       -2.54581332185641
H           -5.69136304496635        0.08300411176645       -2.76647321404157
H           -4.80145674049244       -3.80969809170255        2.37243647316080
H           -5.29176745477381       -4.93866647398491        1.08264229543044
H           -3.59901084733992       -4.38796300073232        1.18157721783224
H           -2.98109439708051       -2.27686156841834        2.09271622520243
H           -1.99280781464384       -0.06364156298561        2.09155732252085
H           -2.80535169489878        2.62899348122856       -1.68527375499747
H           -1.39175859046890        3.28272740236815       -0.86277791036813
H           -1.74606728694717        0.31974137693323       -1.45364369848285
H           -1.05406343929141        1.46079245161335       -2.61131433099044
H           -0.68567731476766        1.76293280469990        1.08275622812724
H            0.78391982002609        1.99233041158429       -0.86388577319828
H            2.24362010093688       -0.76293224418555        0.71700741315964
H            2.40888776160744        0.91412111188624        0.17286913878820
H            2.85707034519590        0.10518610481809       -2.14816961435821
H            2.77401087579991       -1.56762478933886       -1.57014527580104
H            4.73258595934129        1.55670581809761       -1.50123328180070
H            7.03815621270170        1.71696779462997       -0.72692580768153
H            8.78209872175607        1.69853517837485        0.86946209878957
H            9.31664261957328        1.08384499219515       -0.72105646553394
H           10.15867870485981        0.57359608885013        0.76321704271015
H            7.14658419401851       -4.35386824908672        1.52291643073609
H            5.53651313643329       -3.61289586384300        1.69368149737843
H            6.10292589007634       -4.16907298724752        0.09201394909684
H            4.50053141508815       -2.45656899942095       -0.09121316266184
H           -0.15061495519144       -1.55585658369782       -1.70059709781728
H           -0.93057621125283       -1.28457156673766       -0.12846993470909
H            0.63692151300992       -2.10334398649949       -0.20859721508784
H           -4.61896532912143        2.58609290304752       -0.49454010604763
H           -3.95757822954119        2.53604816512950        2.57067191836511
H           -5.28444705491600        1.77267233817299        1.73103167501330
H           -5.33582141698440        3.49635254704389        2.10968607819400
H           -3.16311602226775        4.77512310820211       -0.51085884194653
H           -4.84609472977328        4.35016030346261       -0.92483264540508
H           -4.45698393531577        5.08093443761579        0.67636557407396
H           -0.83682617484364        2.86919348082937        3.09568961660878
