72
 energy: -99.388854064926 gnorm: 0.003283913921 xtb: 6.6.1 (8d0f1dd)
N           -1.62311597305669        2.69510110423447        2.07740257666684
C           -1.67734220083454        1.80016644300330        1.20542883441707
C           -2.75070149572180        1.71165075071510        0.15533391436364
C           -3.49075296098912        0.39510835437651        0.29476342386614
C           -4.31704682398103       -0.05193525825969       -0.73689917557362
C           -5.01927283368424       -1.24273997644746       -0.63761038608537
O           -5.81742117280774       -1.75753082066621       -1.59206951426511
C           -5.97304964971309       -1.06784505463164       -2.80987768420508
C           -4.91359156014482       -2.02168105293257        0.54952809146319
O           -5.63089505110317       -3.15900585374444        0.55948686095578
C           -5.61848564419766       -3.97325530921710        1.70951340766014
C           -4.10285560170397       -1.56144753690239        1.57738597932438
C           -3.40179045456917       -0.37133087484934        1.44954832788899
C           -2.00931568234068        1.79946358333125       -1.21196298966120
C           -1.39349287750103        0.50985599951769       -1.77672036023605
C            0.08427027448889        0.25010213540935       -1.45577706138007
N            0.34362277256358       -0.13767399500759       -0.08325204146448
C            1.64031615114680        0.24105529401726        0.44520348642072
C            2.80475409942624       -0.60136326910228        0.02705783333029
C            4.13099542349534       -0.20553562556486        0.02148073491841
C            4.55269600271258        1.12349796620432        0.29922309536542
C            5.87762139114011        1.47578246639999        0.25732432109144
C            6.86861038807156        0.53885718516671       -0.05052315020749
O            8.17752716134085        0.78629599443191       -0.12735748546661
C            8.66208904531821        2.08899782851459        0.11571081002230
C            6.48018778065712       -0.81514990750968       -0.31413856918112
O            7.50212532461118       -1.64762533624175       -0.58784385000879
C            7.23090037638358       -3.00168042045760       -0.86977835237036
C            5.15249777215113       -1.15868182573130       -0.27446899204093
C           -0.09611348152063       -1.47112709895789        0.25751712916890
C           -3.80388051532697        2.85673498258058        0.25275079714703
C           -4.57854648685930        2.80115469360670        1.56706972691925
C           -3.20095028342811        4.24704381167741        0.07387938732130
H           -4.40933301107540        0.54198495382020       -1.63096320604468
H           -6.42864250786894       -0.08444429844198       -2.65936783653994
H           -6.63854182504432       -1.68406170988314       -3.41126375237980
H           -5.01680543581181       -0.95316477376460       -3.33039065973773
H           -5.99481999715580       -3.43540057855611        2.58462106654625
H           -6.28196437312728       -4.80602719743412        1.48457136568538
H           -4.61461847631924       -4.35554690741788        1.91882392694498
H           -4.01226774826971       -2.12523855167948        2.49159364221297
H           -2.79511753508837       -0.03596021974079        2.27609232119773
H           -2.73044909842538        2.16757031063151       -1.94276385391460
H           -1.22928268417242        2.55779135936330       -1.12738896766454
H           -1.98656025170683       -0.35561225562503       -1.48498723365449
H           -1.44483501991018        0.57905521517794       -2.86586376828732
H           -0.91692236922469        1.01844219488583        1.07784828804945
H            0.65739261002122        1.15503829066314       -1.66965884044979
H            1.56633912846052        0.18683084589027        1.54349969292944
H            1.80883263674249        1.29004562418847        0.18786865006821
H            0.42130408782857       -0.53404816277253       -2.15198952753218
H            2.58247045717042       -1.62930537973578       -0.21655886106712
H            3.82200766778738        1.87831992308316        0.53983467116384
H            6.15532807965386        2.49745725959773        0.46324737976730
H            8.42327412480325        2.42088639285617        1.13014665710129
H            8.26197166332701        2.80421080834269       -0.60864059000591
H            9.74248576314297        2.02497635064990        0.00149721201506
H            8.19495869912388       -3.45011307060869       -1.10089770264269
H            6.79221564660954       -3.50853375721472       -0.00483285192242
H            6.56608378878166       -3.10602851440629       -1.73238616934028
H            4.84829097323578       -2.17520884990805       -0.46703941556646
H            0.33299253897774       -2.23962667559362       -0.39776657915227
H           -1.18170865362073       -1.52786415503530        0.17683930111104
H            0.18227963684123       -1.69232386037837        1.28623036443582
H           -4.51722378500163        2.68670934915381       -0.56283937325979
H           -3.91016636892072        2.99099176412248        2.40167480563911
H           -5.05262022072118        1.83242216378342        1.70613897040241
H           -5.35342560359966        3.56349322812442        1.56668031090504
H           -2.46378839512490        4.43703957934372        0.84828922535439
H           -2.73537788515727        4.36736616391583       -0.90040675934032
H           -3.98777641814992        4.99197089432789        0.16287522649500
H           -0.83905745602368        2.69478639181255        2.72156858692672
