25
 energy: -42.480981342106 xtb: 6.6.1 (8d0f1dd)
C            3.22400449493718        1.51588942955364        0.14151128948203
N            2.52200075251494        0.20874940441007        0.01569065979551
C            2.90964023219195       -1.09062740759955        0.04822502155828
N            1.81268830329812       -1.91379149003907        0.03547400689563
C            0.64846697340956       -1.16943079760980       -0.03975093806695
C            1.14424216065177        0.15545372075177       -0.06896951954778
C            0.25778523571603        1.27402149905886       -0.10980634450953
O            0.58672294807305        2.45643963325102       -0.13489424426859
N           -1.05029920983185        0.87010427350840       -0.08782423437907
C           -2.05626163500071        1.92927818480820       -0.05211233622972
C           -1.52976727199711       -0.45519473073180       -0.08808187876566
O           -2.74940538192240       -0.43405685295876       -0.09101261475548
N           -0.64436533420104       -1.55231859922580       -0.06960245703618
C           -2.73483943267951       -3.00280208516154       -0.07568884043257
H            3.99957642321822        1.50689587326391        0.91212392544889
H            3.70681362807267        1.87203477363259       -0.78527739258070
H            2.49120816247218        2.29196747180844        0.43283238578860
H            3.90996065190878       -1.48597376674387        0.12587812869403
H           -1.44777143307499        2.82848235778047       -0.03214648921291
H           -2.69133552975899        1.88738785970819       -0.93512136718462
H           -2.68936011854988        1.85468108182742        0.83456064383188
H           -2.60674288380954       -3.46691014933556        0.85655247609515
H           -2.54660104196341       -3.49662606995064       -0.98199659034184
H           -3.22337163269343       -2.06860705758109       -0.10679435527473
H            1.80756000963188       -2.92776880234873        0.08661751657109
