  72
        -99.33455348
 N         -1.9529152569        2.7972802966        2.4510521274
 C         -1.8403791347        2.1121406822        1.4120309496
 C         -2.8961860103        2.0204373679        0.3435237920
 C         -3.4052065372        0.5889016694        0.2344342930
 C         -4.1625096640        0.2051594551       -0.8291238609
 C         -4.8677802019       -1.1109173959       -0.8799371072
 O         -6.2449334674       -0.8768653144       -0.5191279140
 C         -7.1859573634       -1.0086101101       -1.5539615344
 C         -4.3372940950       -2.0957614315        0.1298711067
 O         -4.7768808246       -3.3361815507       -0.0902657018
 C         -4.5313612733       -4.3493057449        0.8648994734
 C         -3.5687736898       -1.6655406617        1.1810467683
 C         -3.1350324253       -0.3424861550        1.2609028692
 C         -2.2060095356        2.4668251331       -0.9715921463
 C         -1.2702439926        1.4315611251       -1.6230819155
 C          0.0309906134        1.2509469801       -0.9292543922
 N          0.5364162309        0.0976523241       -0.5044969744
 C          1.9387057294        0.1100146638       -0.0949313512
 C          2.8444931197       -0.1999483911       -1.2972863896
 C          4.2927721439       -0.1607113716       -0.8952630963
 C          5.0181977143        1.0173578172       -0.9789235607
 C          6.3514840373        1.0590428119       -0.6026139974
 C          6.9879342608       -0.0799947802       -0.1290954550
 O          8.2739485580       -0.1587505161        0.2552879739
 C          9.0923713015        0.9850394967        0.1646371058
 C          6.2492443386       -1.2929848906       -0.0321575622
 O          6.9423846916       -2.3489146326        0.4347104652
 C          6.3080710403       -3.6015049572        0.5373941984
 C          4.9164294677       -1.3089086641       -0.4139425852
 C         -0.0819433519       -1.0739796636       -0.4605607780
 C         -4.1344896362        2.9270211387        0.6193749741
 C         -4.8871844405        2.4850307180        1.8718310454
 C         -3.7890289427        4.4097146819        0.7197999451
 H         -4.4151964655        0.8954690808       -1.6186743276
 H         -7.0137006411       -0.2790961974       -2.3536417398
 H         -8.1557109708       -0.8165154546       -1.0987425964
 H         -7.1778336965       -2.0193325728       -1.9772346091
 H         -4.9693636919       -4.0919845622        1.8323414104
 H         -5.0097108204       -5.2450425452        0.4742436286
 H         -3.4591277483       -4.5285911327        0.9830830797
 H         -3.2860665492       -2.3484287630        1.9668075847
 H         -2.5830893505       -0.0311350282        2.1326983792
 H         -2.9798967564        2.7173535742       -1.6966101081
 H         -1.6365271479        3.3755592593       -0.7718731585
 H         -1.7951161662        0.4851572103       -1.7377175041
 H         -1.0508228080        1.8110414187       -2.6286370269
 H         -0.9333307251        1.5421409122        1.1527859074
 H          0.6778123941        2.1110508521       -0.8665643805
 H          2.0939877278       -0.6364103165        0.6857758774
 H          2.1941441348        1.0913869628        0.3091938136
 H          2.6581307933        0.5377518666       -2.0798616272
 H          2.5896022019       -1.1862261613       -1.6888911346
 H          4.5498827363        1.9145492589       -1.3538972978
 H          6.8917617215        1.9874442895       -0.6883044654
 H          8.7226515605        1.7938096937        0.8020843732
 H          9.1713005813        1.3393265929       -0.8674401820
 H         10.0736268910        0.6700586000        0.5142959003
 H          7.0678012417       -4.2835829127        0.9140267204
 H          5.4700715566       -3.5702329692        1.2409973522
 H          5.9562942498       -3.9540551120       -0.4370660533
 H          4.3507040881       -2.2254833181       -0.3549736805
 H         -1.1062639451       -1.1716318835       -0.7547263689
 H         -4.8508977040       -1.5500880261       -1.8866648812
 H          0.4504856332       -1.9320108815       -0.1061480859
 H         -4.8056016773        2.7906230353       -0.2364004067
 H         -4.2543106563        2.5940633262        2.7472912000
 H         -5.2117392320        1.4503960738        1.7908547065
 H         -5.7683944436        3.1072162528        2.0041296505
 H         -3.1031147084        4.5818125934        1.5436949502
 H         -3.3484798639        4.7877577626       -0.1987196392
 H         -4.6981004460        4.9743559699        0.9101171566
 H         -1.1688652198        2.8211641952        3.0953255937
