72
 energy: -99.345967085399 gnorm: 0.007140726565 xtb: 6.6.1 (8d0f1dd)
N           -1.86318366219891        1.92081457395646        2.45635801126823
C           -1.60493120486403        1.98662319031275        1.08279519437082
C           -2.84842806952785        1.77102483821997        0.14591787702896
C           -3.41116903127087        0.36680777115516        0.26508365560613
C           -4.38047085153366       -0.06232448971558       -0.64532127213983
C           -4.92750801788121       -1.33397276128631       -0.58076263378447
O           -5.86391350143686       -1.82472423330842       -1.41692847726208
C           -6.39467749815615       -1.00088528989863       -2.42774738921871
C           -4.49419139271637       -2.23200522980073        0.43476461619518
O           -5.06851073118903       -3.44864096850257        0.41511931320495
C           -4.72891761910700       -4.38578684187227        1.41058948185571
C           -3.54604170844178       -1.79152642475645        1.34686434600998
C           -3.01728382329554       -0.51232609239771        1.26559784482783
C           -2.37982301118870        2.02417425131565       -1.30384765309202
C           -1.49213380794832        0.91501387603745       -1.90862834484343
C           -0.11483283656940        0.89871426932555       -1.35828915614204
N            0.46951587993267       -0.10858535678974       -0.71740214120485
C            1.85627518539166        0.10114353915993       -0.30996640416857
C            2.82705609950884       -0.31838094644227       -1.42319641342718
C            4.24392401297160       -0.10174362843068       -0.97031076999946
C            4.87413052129115        1.11632357782606       -1.17399849599777
C            6.16870892654323        1.32907388261026       -0.72788829275922
C            6.86072901997382        0.32586064971505       -0.06244686521873
O            8.11461930018048        0.41886828673853        0.41119576937767
C            8.83263418851203        1.61870059883860        0.23443743686738
C            6.22038729522254       -0.92770127354086        0.15436555549829
O            6.96085895572344       -1.84458405788809        0.80312794285006
C            6.42196627194769       -3.12286994040855        1.04554659068065
C            4.92357655893233       -1.11477436555414       -0.30013380053684
C           -0.06407686362452       -1.28657565838404       -0.43099777891564
C           -3.97856720679409        2.77005897702725        0.53374626493918
C           -4.58375901804215        2.37588124552359        1.87630529917106
C           -3.52803972838900        4.22909107927553        0.57200659881849
H           -4.72526114837190        0.61117818561244       -1.41248871389903
H           -6.88286642214926       -0.11546772518243       -2.00933295591716
H           -7.13545388926716       -1.61071991996033       -2.94119052620011
H           -5.62394074081112       -0.69242655417282       -3.14139845552326
H           -4.97390707909498       -4.01467364710269        2.41002930891797
H           -5.32722949425608       -5.26911720667471        1.19614804326462
H           -3.66706547781402       -4.64735618307504        1.36832940500890
H           -3.21299169434265       -2.44135805825133        2.13969692365852
H           -2.31707443084288       -0.19257584510989        2.01835934461588
H           -3.25500409018758        2.12897288567871       -1.94516285788790
H           -1.83382778674982        2.96707906298276       -1.35143963198327
H           -1.98388025405861       -0.04827242216771       -1.79077481061499
H           -1.42086674317192        1.12474240361860       -2.98205458645095
H           -1.13437530028953        2.93454005554093        0.77945982125621
H            0.48100594487555        1.78525389705360       -1.50019044887164
H            2.05578939448581       -0.48406831075665        0.58913151294457
H            2.00804423552871        1.15561211798415       -0.07117210462322
H            2.62531605946090        0.27344116277236       -2.31750181960206
H            2.66240909583725       -1.37023834945301       -1.66224385368150
H            4.36046210002204        1.90956647449706       -1.69517685817488
H            6.63527523033458        2.28370962142322       -0.90726884169500
H            8.33860783414406        2.45761464458277        0.73372591729891
H            8.96738990656810        1.85161398992118       -0.82596319330177
H            9.80457299068819        1.44731350173601        0.69292717255345
H            7.20461656154620       -3.67716726487799        1.55969397458738
H            5.53634740243590       -3.06930922780906        1.68654337343816
H            6.16913725901637       -3.63480473243636        0.11204283081581
H            4.43059796333690       -2.06179325736787       -0.14673455440420
H           -1.07424244391011       -1.51821392591308       -0.69790919447520
H           -0.93552583327843        1.15615179254410        0.83252314646914
H            0.51703562091052       -2.00613692622571        0.10782035155538
H           -4.75308381594216        2.68165686958106       -0.23726015209935
H           -3.75948150564019        2.14680101182098        2.56710956618995
H           -5.20354162790205        1.48702446127909        1.79220617532523
H           -5.17721325323305        3.18646904107282        2.29014184624905
H           -2.84099080900819        4.40567737546027        1.39537410130717
H           -3.05422364152911        4.53356030664696       -0.35732399170998
H           -4.39594998515942        4.86645704222609        0.72426741876934
H           -1.68601716713082        2.77263612693523        2.97236624963058
