72
 energy: -99.406643038718 gnorm: 0.004656847168 xtb: 6.6.1 (8d0f1dd)
N           -1.90255635985038        2.82033013691203        2.23821812924302
C           -1.84600055252506        2.12616558574438        1.20196611376953
C           -2.98980011387208        1.91549117553385        0.24897684628574
C           -3.46275778354025        0.47153170166788        0.33108435455151
C           -4.40419222658772        0.00074733201486       -0.58646348328919
C           -4.88079073450410       -1.29822878637783       -0.53389453160577
O           -5.80003589233786       -1.82462950417814       -1.36900314813937
C           -6.43089508633134       -0.99110435523164       -2.31273799237536
C           -4.38987992270065       -2.18386463768786        0.46341484062752
O           -4.89899172189700       -3.43157415677711        0.43200713571961
C           -4.51912288243903       -4.35263225668752        1.42751942927307
C           -3.45579926928732       -1.71058079229947        1.37079255341484
C           -3.00249035812310       -0.39849186347864        1.30703363517709
C           -2.42698867288490        2.20340976041935       -1.16772175233655
C           -1.49105978087644        1.11046290317158       -1.71482741362104
C           -0.15624942814729        1.10034450644230       -1.07600132607542
N            0.50656640772239        0.01626740897726       -0.69155643225465
C            1.88736597920590        0.10964131000851       -0.27950830675221
C            2.85217413254712       -0.33485817653430       -1.39572406478574
C            4.27289991128297       -0.13723035999657       -0.94604448716313
C            4.91981727226810        1.06838247819541       -1.16388949705085
C            6.21980599188139        1.26609167007059       -0.72543114927072
C            6.90022751889117        0.25868087930105       -0.05640957099836
O            8.16012289287760        0.33677433576663        0.40932611387247
C            8.88960442718801        1.52804676324687        0.22374019321160
C            6.24272434488488       -0.98112540654202        0.17655552868832
O            6.97775591252798       -1.90257340450908        0.83046103813837
C            6.41447949265633       -3.16301728748677        1.10946257348004
C            4.94020533561281       -1.15277272097141       -0.26525597412002
C           -0.08648527183780       -1.29889330522687       -0.73373134881859
C           -4.20545656552238        2.84663269408865        0.53544927400003
C           -4.85508724433064        2.52087126845630        1.87824588455021
C           -3.85245628596221        4.33030562057432        0.47984133815541
H           -4.78162062329086        0.66641439523039       -1.34458742935183
H           -6.93472336891444       -0.14857888888896       -1.82951219686944
H           -7.17097742309191       -1.61761762513614       -2.80659728885802
H           -5.72160752986377       -0.61662456092963       -3.05805003457239
H           -4.77708575841541       -3.99164513657069        2.42747467622300
H           -5.08137273247007       -5.25984139219402        1.21538576311588
H           -3.44755294258532       -4.57249014329932        1.38311311960564
H           -3.08061238309825       -2.35356535462875        2.15041773501389
H           -2.30104471272617       -0.05814890955941        2.05306034726968
H           -3.26152979331439        2.31012542539546       -1.85967966427973
H           -1.89186566369700        3.15349203532653       -1.14819935326442
H           -1.98006743727178        0.14045404104574       -1.64353291386869
H           -1.33998950518370        1.33019405936412       -2.77993171387508
H           -0.92533055523834        1.62102173458588        0.84886988532816
H            0.38914721904369        2.03246572502317       -1.05004477025701
H            2.04194920637266       -0.51599541625279        0.60369083798355
H            2.11490930275619        1.14294431275860       -0.00972474223274
H            2.65754340608624        0.26356993949577       -2.28731975970284
H            2.67533554603433       -1.38343835017382       -1.63787302815712
H            4.41619203958192        1.86450925952699       -1.69096579184280
H            6.69861054050532        2.21269222430905       -0.91481019489655
H            8.41137739963836        2.37259639631780        0.72927883955247
H            9.01501202061309        1.76024635553682       -0.83798454105476
H            9.86490460349735        1.34537990854115        0.67063493769792
H            7.21024191939166       -3.75298025848564        1.55121162351490
H            5.58314258863427       -3.07841101295132        1.81713713931674
H            6.07103226839851       -3.65847392293039        0.19337058686298
H            4.43288948549901       -2.08956410765195       -0.09558450705382
H           -0.25109459046718       -1.62600573387454       -1.76259139270291
H           -1.04399389678815       -1.30248403811102       -0.20680877489969
H            0.57887528199939       -2.00749066516377       -0.24729796290509
H           -4.94169641655301        2.64632143752698       -0.25116214031078
H           -4.16232346168518        2.72921652767036        2.68705943935633
H           -5.15266609928813        1.47629956179388        1.92829380710877
H           -5.74083230845108        3.13609677129549        2.01276862201498
H           -3.10603187273763        4.56979522817447        1.23084431927649
H           -3.48427926650366        4.62433540618775       -0.49952133514496
H           -4.74373928405799        4.91594476576751        0.68918093686662
H           -1.05926307134822        2.91477901182105        2.79535725909125
