72
 energy: 27.612695200304 xtb: 6.6.1 (8d0f1dd)
N           -1.42964480115884        2.35976761976780        2.18125900688600
C           -1.90749985669258        2.82531548800220        1.22060966542831
C           -2.50441826597014        3.10925550768000        0.05031375964591
C           -3.14243562558783       -0.12942075375338        1.33897719018843
C           -4.10964721964270       -0.15527479675223        0.27942186961569
C           -4.85934919869885       -1.29834167288851        0.00372555982894
O           -5.85378156602969       -1.41165062053013       -0.94569075511301
C           -6.22146494506446       -0.30815151761941       -1.75710882297791
C           -4.61946059781731       -2.46579820703892        0.75758901583825
O           -5.39334627361367       -3.53176799030993        0.43287737250244
C           -5.22861818163652       -4.68597238116334        1.18791468470031
C           -3.64871169734877       -2.45960976308258        1.74204984436889
C           -2.92219628464702       -1.30354039289919        2.00011510075268
C           -1.82423772022912        2.85503650820673       -1.25589666512144
C           -1.15799591197701        1.46691132840112       -1.37315990504084
C            0.05382529804480        1.35514763776840       -0.44645718655993
N            0.83481994292919        0.16504505728585       -0.69274029074988
C            2.22231404927106        0.14014133499304       -0.26116936225317
C            3.13758866082076       -0.36819342694110       -1.39891762277777
C            4.57101790053837       -0.34021452743638       -0.95826300646723
C            5.34500364307203        0.78296234422497       -1.15359126739971
C            6.65680123717871        0.83260454120586       -0.69874968314898
C            7.21815170303711       -0.24489379489047       -0.03668867311916
O            8.49415373319726       -0.31221345876052        0.44189315374311
C            9.32814036438119        0.80167893912926        0.25667916125737
C            6.43164362169689       -1.39726739941814        0.17487154297249
O            7.05435701032154       -2.41064698316314        0.84215031299098
C            6.33352136749719       -3.58764784365772        1.09696233977758
C            5.12537805602844       -1.42532876539166       -0.28033961202906
C            0.13628620587126       -1.09619570711334       -0.53610654376367
C           -3.95458552734840        3.49028196965466        0.10979619042259
C           -4.72666662081652        3.24517928995931        1.43975263904035
C           -3.86470779128162        4.96690130381836       -0.17523870676823
H           -4.34127177494914        0.70597385103354       -0.35869995749694
H           -6.56801040001402        0.52951574706381       -1.15262131455476
H           -7.05298881478314       -0.62242029877891       -2.39784609372309
H           -5.40414123371979        0.01554121182200       -2.41416111665350
H           -5.42557472112223       -4.49696551185965        2.25143286799408
H           -5.97255279078548       -5.35086666561651        0.75784039254320
H           -4.21749579371009       -5.10839418244654        1.09138181703740
H           -3.44439983314474       -3.33035989895729        2.34375476070308
H           -2.16152601334723       -1.21649648783722        2.74370859626173
H           -2.58287268587639        2.91455514169261       -2.03604369140037
H           -1.04596263858584        3.62228490806075       -1.40560808793382
H           -1.85087948909108        0.65224087733822       -1.12705503778930
H           -0.85126750963606        1.32914604583977       -2.41868984739697
H           -0.30319449893652        1.39540857705403        0.60857800546716
H            0.72662494314420        2.19702843873295       -0.66301769145887
H            2.39014866251300       -0.51094182577650        0.61159591102131
H            2.54352046596277        1.14638370650499        0.01639154850087
H            2.98479521800025        0.27488698185970       -2.26333293340473
H            2.85344781747178       -1.38589579250175       -1.68414222634857
H            4.93387530321798        1.63365531349468       -1.67579239241115
H            7.23257111148198        1.72735990878821       -0.87045269014941
H            8.93521000683022        1.69705675975464        0.75069041462708
H            9.47959729873635        1.01207589443690       -0.80734584964928
H           10.28129300721983        0.52871009187587        0.70892288753506
H            7.02820192222112       -4.24069644829025        1.62248106650302
H            5.45929163777540       -3.40639226669492        1.73509888997144
H            6.01078361961738       -4.07623541713356        0.17063243662544
H            4.51278098386377       -2.29916787578420       -0.11893635002148
H           -0.57011323306448       -1.22037911355449       -1.35949862973589
H           -0.42736850956190       -1.17237139442087        0.40810707827252
H            0.84948422447112       -1.91842029732316       -0.59798300804014
H           -4.49412649600602        3.03818422066366       -0.72919862484419
H           -4.18410657758451        3.65310098260912        2.29790181867108
H           -4.82921626376850        2.19630337920115        1.65500532224076
H           -5.71988051300570        3.68903126618379        1.40418013744890
H           -3.29343002566403        5.41341799533957        0.63680680404619
H           -3.37737787549490        5.16688425261072       -1.12689315683124
H           -4.87025244299811        5.33397679972636       -0.19508540487780
H           -2.48477870787869        0.86272619610552        1.77540444295566
