72
 energy: 61.226535013732 xtb: 6.6.1 (8d0f1dd)
N           -1.70157209023876        2.22275428475408        2.33098939500173
C           -1.93793626895625        2.50766557093469        1.17018170199409
C           -2.58330091217235        2.79483178968436        0.09604938668454
C           -3.23410773737156        0.00072940777799        1.02778055336522
C           -4.20347822004004       -0.04230949930265        0.04152599446304
C           -4.89986165613388       -1.22387852258561       -0.13005614971233
O           -5.88536260419946       -1.43145449678899       -1.05308761116292
C           -6.27621832739412       -0.38370063890967       -1.91245097848800
C           -4.57415796834400       -2.31492149384108        0.70094376029646
O           -5.29770602073341       -3.43312930295711        0.44291574119746
C           -5.06821738532974       -4.53593403054860        1.25853555603015
C           -3.60001018408418       -2.20655699612671        1.67548989232015
C           -2.90602740667896       -1.01049700917632        1.83893313975970
C           -1.90208779147295        2.69260179908180       -1.21352578353059
C           -1.14105757497786        1.37050686506906       -1.45354317258650
C            0.08797150942480        1.31925278760539       -0.55026914953223
N            0.83267658124968        0.10052263647085       -0.65980718707290
C            2.20688214061245        0.06760467821055       -0.22212650296158
C            3.10055558231943       -0.43364183604874       -1.37657519195426
C            4.52738629897219       -0.38345741445879       -0.94593920049366
C            5.27604990231752        0.76060426925255       -1.12738815298008
C            6.58509028171690        0.83382958861972       -0.66682828045699
C            7.16169139978097       -0.23799226067165       -0.00688304092553
O            8.43963161584325       -0.28299412402148        0.48010340622094
C            9.25832650366202        0.83715473392645        0.27686626745968
C            6.39338934466141       -1.40226421150565        0.20702030171638
O            7.03164075578116       -2.40696235729188        0.87527843666564
C            6.32661452672632       -3.59626023688253        1.11305930326427
C            5.08969806767018       -1.45425633293344       -0.25431102580275
C            0.10640126830669       -1.15423827493995       -0.53894798467867
C           -3.98541163087528        3.33220536738480        0.19912948418365
C           -4.68666111567323        3.11966710741530        1.57030896179772
C           -3.75188814640383        4.80923577787862       -0.00446382331081
H           -4.47251171232667        0.77264014156514       -0.61675755468644
H           -6.64458352183404        0.46757840328887       -1.34126836614235
H           -7.09516659241012       -0.77042256822747       -2.52093804612925
H           -5.47185279911665       -0.06290751876099       -2.58850072082245
H           -5.26958265386097       -4.28749788105180        2.30774655874932
H           -5.77657313240490       -5.27645820667270        0.89638761501517
H           -4.04126619061381       -4.91622697989798        1.17033867497516
H           -3.34573464638852       -3.02554398208534        2.32076744439258
H           -2.14749574093693       -0.85629117883537        2.56738937198454
H           -2.68215902122924        2.78085325452889       -1.96298160563109
H           -1.19004711660299        3.52555907630641       -1.23079226052579
H           -1.76333263055376        0.49939880616669       -1.21857534198863
H           -0.90790206040017        1.34896838599814       -2.52611522980761
H           -0.45520425375859        1.57209718459743        0.49597542303540
H            0.77859471096584        2.13756873421664       -0.81036260903447
H            2.38253577807423       -0.58488651134414        0.65342874113499
H            2.50520293861373        1.08212432189660        0.04277850259946
H            2.92329066085407        0.21535439461508       -2.23480023834388
H            2.81101706655098       -1.45097840315752       -1.64668414974144
H            4.84897792319965        1.60766608980754       -1.64359429833569
H            7.14843940262909        1.73857816302574       -0.83535343915150
H            8.85568058167881        1.72907350166574        0.76802431629349
H            9.40083543905440        1.04599153655912       -0.78975291044403
H           10.21981774856715        0.58413662813075        0.72316164691946
H            7.02350105340058       -4.25031974624011        1.63324747092269
H            5.44811093565194       -3.43408001030038        1.74992090197454
H            6.01122842662955       -4.07480651744006        0.18013227719912
H            4.48204399892498       -2.32990288554436       -0.08983399451445
H           -0.46377845393967       -1.31875456210298       -1.45478353064193
H           -0.60315841912505       -1.20150897122848        0.30126215438480
H            0.81002722567502       -1.98373177227000       -0.45473378580602
H           -4.59538964496993        2.94808954547969       -0.63244401644685
H           -4.04611592657896        3.44948501847244        2.39487713379954
H           -4.91337571511291        2.08948115232741        1.75759925389014
H           -5.62927747881663        3.66106997227013        1.61861274676800
H           -3.09728961518194        5.18462718670027        0.78954244995891
H           -3.30718304427113        5.01331227934562       -0.97599286749005
H           -4.70111897427599        5.30398733012381        0.07948981105513
H           -1.83558358962109        1.24512617758392        2.56615547617709
