72
 energy: -1.253400686189 xtb: 6.6.1 (8d0f1dd)
N           -1.34709554373496        2.87136630518658        2.28630931356763
C           -1.91471121427726        3.04507539537620        1.28688383805446
C           -2.54214110521087        3.18572871080003        0.07928854518271
C           -3.13428106843272       -0.26820203049920        1.35796934224255
C           -4.09215887959205       -0.24745438587908        0.34719677797708
C           -4.84391645139947       -1.37045681682196        0.04863048119980
O           -5.81381173535264       -1.44486361385449       -0.90925014971316
C           -6.14031755322351       -0.29376198742584       -1.64110799807085
C           -4.63714544374390       -2.56370657690615        0.77583134025846
O           -5.43592164462339       -3.60871898929460        0.41355736436173
C           -5.36443862166534       -4.82128336852357        1.11921159057642
C           -3.67578334026822       -2.57393143402331        1.76862045233453
C           -2.93443005427944       -1.43482976496662        2.06302092309391
C           -1.82020622050891        2.89977792108629       -1.19315882931871
C           -1.16841563433367        1.50427149437193       -1.29094672913081
C            0.07981476760830        1.35074323468341       -0.42103084531044
N            0.83954378436544        0.16442445609389       -0.79439549020859
C            2.20312092177630        0.14817479471155       -0.28856611289872
C            3.14449033654418       -0.34946542080278       -1.39642269726158
C            4.57440727981161       -0.31964136113013       -0.94725728290440
C            5.36158208161546        0.79584083443836       -1.16187057152269
C            6.67650865204631        0.83436823346066       -0.71859679090098
C            7.22053924171419       -0.24615308391674       -0.04984200884630
O            8.49459480871016       -0.32311098628034        0.42840873482190
C            9.35764692432576        0.76809511311600        0.24087022733305
C            6.42329324421295       -1.39082552093784        0.18080364550977
O            7.04853411092418       -2.40489729051281        0.84189551527893
C            6.33564095037695       -3.58595304809812        1.10138326820132
C            5.11583595908367       -1.41047286450172       -0.26789388835354
C            0.12671334380987       -1.07305353823032       -0.55311474393889
C           -3.96517305267472        3.65364914345232        0.05246190758150
C           -4.70179277878318        3.33963030207158        1.35302092695700
C           -3.95086504383856        5.16606399454465       -0.20319059654357
H           -4.25871276055058        0.65839855317804       -0.21220556287695
H           -6.46825549785903        0.52909308274884       -0.99187972063324
H           -6.96602874327057       -0.58555348310952       -2.28933762573557
H           -5.30588136402159        0.04564821357068       -2.26392014303184
H           -5.57508776643150       -4.68135067585246        2.18593368392114
H           -6.12645707049559       -5.46822381185035        0.68036132634980
H           -4.38087685718256       -5.29034376286541        1.00772226911494
H           -3.49906401196553       -3.47503719376091        2.32979808919411
H           -2.20194042581165       -1.49751908329009        2.85636127815178
H           -2.51785071214456        3.01208256008848       -2.02771724557079
H           -1.02811576078319        3.64587806582582       -1.32101975769344
H           -1.90330296593344        0.74305518595118       -1.04005214881937
H           -0.86248354218615        1.34873918168246       -2.32869577063227
H           -0.18739463378872        1.33341386220433        0.64166773980082
H            0.72827604966654        2.21310078173885       -0.61014842402487
H            2.30663663813390       -0.48133173263633        0.60512756464368
H            2.49915337318123        1.16012994941243       -0.00858543184650
H            3.00490606066865        0.29776806393666       -2.26346057946315
H            2.85089776280762       -1.36097120448424       -1.67620486147845
H            4.95490181505187        1.65074833784740       -1.68152359937006
H            7.26852214695506        1.71632232404281       -0.90701629490202
H            8.98246319132589        1.67063113398784        0.73442282586870
H            9.52632152347950        0.97721825270275       -0.82126572134689
H           10.30038232125252        0.47394288288778        0.70103398588261
H            7.03445173763787       -4.23517849958080        1.62738984075538
H            5.46343892391695       -3.40414675822907        1.73847690620029
H            6.01262511675014       -4.07744460183375        0.17696709192556
H            4.49606295287386       -2.27892035587242       -0.10547651489379
H           -0.68008813355131       -1.16804491054988       -1.27632015146562
H           -0.31230007471604       -1.12530765260474        0.45466850441009
H            0.80612385922469       -1.91368356418806       -0.68459013653838
H           -4.49205043217448        3.18199345296731       -0.78902793108045
H           -4.23944941109506        3.83062557300437        2.20536991013905
H           -4.71152035377565        2.27090144425769        1.54904851629544
H           -5.72657571373332        3.69060180470488        1.27781515715817
H           -3.43329895060135        5.66379293479520        0.60862382919132
H           -3.43870414999933        5.39551060568878       -1.13481272181848
H           -4.97054393689560        5.53467135462556       -0.25944338034022
H           -2.58381330439572        0.63680429046108        1.62653726049490
