72
 energy: -2.906510975000 xtb: 6.6.1 (8d0f1dd)
N           -1.62170347040868        2.78985545443429        2.30822994352868
C           -1.62323846822876        2.16560100693104        1.21501465288297
C           -2.76890222828996        2.09113793805861        0.26406460998057
C           -3.30265220681200        0.61605448810955        0.43147640807373
C           -4.28955083750527        0.21391194228429       -0.48056854035011
C           -4.85444239545682       -1.04650560685843       -0.46818511783442
O           -5.83003211548118       -1.48432704341138       -1.31563994060256
C           -6.37617731471054       -0.57665804100461       -2.23792201849657
C           -4.42485565035240       -1.99418911195682        0.48366032008350
O           -5.03491596364209       -3.20819383163404        0.41122719929014
C           -4.72421344050569       -4.16864263841518        1.38509380541507
C           -3.45070172488692       -1.62053652134097        1.38817920436148
C           -2.89901045672459       -0.33603859785156        1.36220282829392
C           -2.16474571113003        2.33814618296541       -1.14974757260805
C           -1.23845432139326        1.21735761039080       -1.65419329458196
C            0.03162938467693        1.16479629796177       -0.87728636997771
N            0.66500087877081       -0.02908046880309       -0.55140371266322
C            2.03747542556273       -0.02535863221805       -0.16812124195712
C            2.96118218011814       -0.52847664440187       -1.29597187856858
C            4.38550206080779       -0.42764692440909       -0.85536862362815
C            5.10660830214082        0.73446218627593       -1.05461469872792
C            6.41724685509108        0.84090621805616       -0.61100197169534
C            7.02299987572879       -0.21352867068844        0.04859077091692
O            8.30087271423684       -0.22191100666711        0.52257331576285
C            9.09845484235125        0.91436319857900        0.31357109452601
C            6.28959026432751       -1.40079728676249        0.27015397866125
O            6.96554392869577       -2.38675389379432        0.92571285131531
C            6.31741683710445       -3.61175494886419        1.14741170558674
C            4.98496990326227       -1.48840438081047       -0.17698322024479
C           -0.02641433993251       -1.28610638262746       -0.60772389992485
C           -3.90076458269735        3.10568672891088        0.52836844200869
C           -4.53287613221615        2.83116179595455        1.89163635296839
C           -3.44934531863828        4.56689956924859        0.46763266932450
H           -4.62936769903365        0.92188293962808       -1.21687063880012
H           -6.81526050494436        0.29029186047782       -1.73531524059264
H           -7.16274553986940       -1.12197276146797       -2.75629849674814
H           -5.63459070238182       -0.23911791520990       -2.97094866090717
H           -4.94143402788242       -3.80392883924802        2.39465154948515
H           -5.36561806236051       -5.01982498454172        1.16383227872655
H           -3.67570385662299       -4.48130072611914        1.32823148723890
H           -3.10636832303389       -2.33163014101438        2.12519498797569
H           -2.14573569980974       -0.10103706983141        2.09614475607958
H           -2.97991529271100        2.45640153845057       -1.87360570496150
H           -1.58869245610772        3.26909144522230       -1.12678043048904
H           -1.77239014765415        0.27301432069415       -1.57622790949382
H           -1.03722336422884        1.39620332787787       -2.72551404708971
H           -0.73942582485802        1.62314243125592        0.77430832849712
H            0.68795554738502        2.01336666936749       -0.97003689984574
H            2.16516411621108       -0.65922979944600        0.71794689326925
H            2.33370970649344        0.99356017058377        0.09237037005847
H            2.78959584118594        0.09011844834036       -2.17911597837337
H            2.70211528116441       -1.56019680717017       -1.53643836380005
H            4.65655249174136        1.56834504421109       -1.57266775871387
H            6.95890973165188        1.75564400846641       -0.79279349059562
H            8.68251120780920        1.79782988239237        0.80925507634445
H            9.23168092237222        1.12576498173474       -0.75316020893577
H           10.06526342129917        0.67733222228293        0.75531666365381
H            7.04902096175278       -4.24140741242004        1.65174204679277
H            5.43813433507252       -3.49648636461467        1.79121318111072
H            6.01818775017746       -4.08914128332830        0.20794222748641
H            4.41337245959876       -2.38963554441893       -0.01798161468086
H           -0.27031381356978       -1.57995946262456       -1.63541268150501
H           -0.96217358641995       -1.23460955631158       -0.04210035272113
H            0.60332890299578       -2.05998268717674       -0.17044630003902
H           -4.65559721017048        2.96219972760431       -0.25371648058794
H           -3.79817371136910        2.98835360617215        2.67619601526606
H           -4.88321515499889        1.80601089692079        1.94162256610955
H           -5.37653886656573        3.49471781020226        2.05447901397432
H           -2.67528610837241        4.76105182109276        1.20375826380650
H           -3.08368815273988        4.84812132107714       -0.51781374727854
H           -4.29893543474187        5.20530195431779        0.70130024558248
H           -0.78204589855798        2.55241979428443        2.83021893676380
