72
 energy: 0.979213771940 xtb: 6.6.1 (8d0f1dd)
N           -1.35124940206302        2.77180319093047        2.26412000979663
C           -1.92218607589249        2.99765113876655        1.27655798856271
C           -2.55643014252538        3.15893035100484        0.07729523592906
C           -3.12186813383338       -0.21909185173655        1.37811889825606
C           -4.07514428353679       -0.21944223005125        0.36115140571827
C           -4.82798727804823       -1.34350525337689        0.05822779279521
O           -5.79785389707858       -1.42333617762491       -0.90619300536404
C           -6.15595817198760       -0.28283524141868       -1.65191067143274
C           -4.63108613912701       -2.54530593905877        0.77707881764274
O           -5.43292432995326       -3.59083075803679        0.41506798640515
C           -5.34389047258067       -4.79252785903069        1.13072538256544
C           -3.66692449663971       -2.55476903129322        1.77097192995351
C           -2.92828176603185       -1.40057331574560        2.06229165473434
C           -1.82602099095866        2.89688612024429       -1.20275273683601
C           -1.16375143700727        1.50641655793537       -1.29907486337606
C            0.08243166171638        1.34612806818148       -0.42507259126336
N            0.84076645673617        0.15999424992192       -0.80011846398938
C            2.20122520909744        0.15595549794439       -0.28235905274388
C            3.14276878399784       -0.33704328607434       -1.39208351263940
C            4.57383652034772       -0.31000906960326       -0.94568745951172
C            5.37304497153521        0.79767087313473       -1.16473384165143
C            6.68851112069477        0.83318926707983       -0.72105099857223
C            7.23118445133332       -0.24698242183064       -0.05102689626588
O            8.50623091404088       -0.32821742535271        0.42647192320281
C            9.36876665833539        0.76579588323296        0.24140122684739
C            6.42718710435802       -1.38816256907841        0.17439679812849
O            7.05007447348608       -2.40571443144373        0.83589289510873
C            6.33616018570316       -3.58492831239546        1.09845565130849
C            5.11892708992594       -1.40315975069862       -0.27266646976392
C            0.13243992629286       -1.07267319623245       -0.54464420306606
C           -3.96294868158242        3.62922111519490        0.05991063597102
C           -4.71340334352073        3.32037666706465        1.35866260110677
C           -3.94254438135150        5.12975531061878       -0.20837695230743
H           -4.25025633414474        0.67156484325862       -0.22179807723228
H           -6.49410981915510        0.54197346929372       -1.01698403448158
H           -6.98587833944610       -0.57203088183223       -2.29861978568635
H           -5.33323760618453        0.05578766260742       -2.28769604002393
H           -5.55077460311934       -4.65060340232146        2.20122445978379
H           -6.10651038859583       -5.43031643812992        0.67796553651521
H           -4.35291591497556       -5.25566940085418        1.02742709535759
H           -3.50453890944504       -3.47137524226202        2.33042564368681
H           -2.18663409004038       -1.44344825629963        2.84681861003212
H           -2.51983833619967        3.01977547869113       -2.05039333367889
H           -1.03736692802664        3.64924988918708       -1.30978525051741
H           -1.90582008672643        0.74614872072881       -1.07314035548232
H           -0.84846788757004        1.35043444786786       -2.33211238148342
H           -0.14569917035032        1.30980655761294        0.64603242517935
H            0.72287483367808        2.21796541428829       -0.59195886104310
H            2.32044711562997       -0.47453644338021        0.61175188618805
H            2.50345896606861        1.16766431323768       -0.00090555863010
H            3.00840208023588        0.31114880674380       -2.25979180176998
H            2.85454773371501       -1.34913669336801       -1.68066859773882
H            4.97187734054403        1.65412247919978       -1.68675184554220
H            7.28224942923206        1.71516627395290       -0.90584563530741
H            8.99439078305157        1.66998493976188        0.73425428626680
H            9.53695547266997        0.97687223368002       -0.82065260262363
H           10.31265612070854        0.47342120661935        0.70069566178385
H            7.03366896214634       -4.23504092746674        1.62547330712668
H            5.46305363632732       -3.40186350646528        1.73343118570642
H            6.01232915287959       -4.07778178375493        0.17544779995566
H            4.50236528116570       -2.27471908443521       -0.11232745914578
H           -0.65784595147069       -1.17585310712415       -1.28003304020266
H           -0.31022334581943       -1.16084612395076        0.46234382767598
H            0.82453492189946       -1.89443711047768       -0.69041320900851
H           -4.48108179814187        3.15880211562179       -0.78403500779162
H           -4.25907173094783        3.81279716921319        2.21425781116986
H           -4.72750292894414        2.25481669145986        1.57100301682421
H           -5.74155329032264        3.67420559767320        1.26880560044691
H           -3.41628045884372        5.61405323652988        0.60688053569147
H           -3.42704304347827        5.35030872727985       -1.14015780654523
H           -4.96305663265738        5.48892911535122       -0.27138306727025
H           -2.57492490887356        0.70981497348044        1.59296566539407
