72
 energy: 61.817375189014 xtb: 6.6.1 (8d0f1dd)
N           -1.69787680483482        2.21783507312023        2.27837070089187
C           -1.96073088142278        2.58073928041333        1.15303722373645
C           -2.57480200621081        2.85690282614374        0.06788298381632
C           -3.23437448647884       -0.06210957198665        1.07775655699161
C           -4.19356515646518       -0.06886757636399        0.08482639893533
C           -4.89902578912750       -1.24337694094212       -0.10318916394021
O           -5.88832745818331       -1.42959360065440       -1.02815922916319
C           -6.26800940739982       -0.36859772583237       -1.88064372151439
C           -4.58419832075503       -2.34740833493379        0.71640009033680
O           -5.31968579966358       -3.45341285593879        0.44271161045738
C           -5.10122013353485       -4.56735981183870        1.24526626149911
C           -3.61052470849505       -2.26522496699142        1.69394176764021
C           -2.90681916788013       -1.07900175204123        1.87584277678801
C           -1.88515596087116        2.72443228290941       -1.23251114191601
C           -1.14711222714942        1.38634410267322       -1.43875520231363
C            0.08059065314556        1.32809045303730       -0.53216439054559
N            0.83431857939986        0.10934134231430       -0.65929805797484
C            2.21425105628546        0.08131963640588       -0.22930776989946
C            3.10855568656475       -0.42095738941072       -1.38353656494131
C            4.53707858508779       -0.37647738337536       -0.95094203523844
C            5.29034917351112        0.76420892407070       -1.13341188072177
C            6.59966156922250        0.83328161957170       -0.67289854020127
C            7.17285508473733       -0.23996016721995       -0.01261124606493
O            8.45060806463841       -0.28916229110319        0.47263306739991
C            9.27237486512104        0.82955450028781        0.27282387901128
C            6.40103535200524       -1.40250263254455        0.20037896323864
O            7.03495988987563       -2.40720948265211        0.86895582676404
C            6.32802677090614       -3.59460629811750        1.10986079571775
C            5.09726184288192       -1.44983702047497       -0.26094161598319
C            0.11310697518909       -1.14431003471448       -0.53529076730436
C           -3.98579570689249        3.36386944006135        0.17135554769360
C           -4.69608749508587        3.14494524908087        1.54011068226595
C           -3.77752728702860        4.83651644965120       -0.04685541607767
H           -4.45501399282968        0.75856754763202       -0.56195494832055
H           -6.63159539328872        0.47977899210221       -1.30276401296199
H           -7.08748098908007       -0.74112333200357       -2.49731666947391
H           -5.45975192924179       -0.04867231569259       -2.55181324144168
H           -5.30154826272850       -4.32991290505248        2.29722728228431
H           -5.81694686563976       -5.29229464014163        0.86844894190016
H           -4.07698057884589       -4.95511844193582        1.15465388292836
H           -3.36498600723498       -3.09070672506446        2.33384433035951
H           -2.14904033000919       -0.92616593611137        2.60523357712021
H           -2.66069910686831        2.80788286123163       -1.98286848726675
H           -1.16061303610866        3.54545206351887       -1.26892635155788
H           -1.78040817847034        0.52597053028406       -1.19562134881777
H           -0.89656978728732        1.34205620954152       -2.50621146799216
H           -0.41985068109750        1.54619070314967        0.49981814840816
H            0.77173037666622        2.14612192229391       -0.78388308948729
H            2.39430717737038       -0.57070472211285        0.64377267839019
H            2.51656650485419        1.09369264497460        0.03827660939637
H            2.93571607843007        0.22733889664767       -2.24187304664933
H            2.81961006975592       -1.43845401378856       -1.65557625042977
H            4.86643401772530        1.61248548985765       -1.65013733799862
H            7.16559326660056        1.73626014931903       -0.84155962680176
H            8.87186863221958        1.72243732611824        0.76433971705206
H            9.41670257316296        1.03878418302947       -0.79336473184543
H           10.23256260005658        0.57314323714959        0.72014652987566
H            7.02458840276660       -4.24810600186513        1.63140481587840
H            5.45012171142285       -3.42899225286226        1.74674026273306
H            6.01240306111542       -4.07491038761683        0.17790792282388
H            4.48859716940308       -2.32510887623815       -0.09683763146090
H           -0.48572909235132       -1.29550223767299       -1.43802664161453
H           -0.57054383014181       -1.20145436186328        0.32959510486542
H            0.82176168057006       -1.97373462566614       -0.48257104003526
H           -4.58433193119401        2.95955586773406       -0.66398693205115
H           -4.07576404027443        3.48936943992024        2.37422839429076
H           -4.90272708750799        2.11303380537109        1.73647724535846
H           -5.64786298066730        3.66942593905288        1.57405804668618
H           -3.13787680973284        5.22541489228351        0.75335319499062
H           -3.32419265138640        5.03315816939237       -1.01636581636286
H           -4.73683050897814        5.30691106471012        0.01931324998223
H           -1.92663624600929        1.25874325417589        2.44880594970710
