72
 energy: 45.017626716311 xtb: 6.6.1 (8d0f1dd)
N           -1.88444304172625        2.50844758945735        2.49789303115142
C           -1.72226162085851        2.24081559822157        1.27210940323620
C           -2.71590345599480        2.32099653026011        0.23417183108104
C           -3.25249561100102        0.42821346256607        0.69535005645265
C           -4.25079401119519        0.11928634728108       -0.24058216771972
C           -4.87337968077192       -1.11342804478549       -0.30925864437416
O           -5.85828817286773       -1.46194036698305       -1.19364345452375
C           -6.32990553105523       -0.48845478263061       -2.09305786126898
C           -4.49353339646265       -2.12920840332540        0.58642131368780
O           -5.14992233792665       -3.30820323794888        0.41878896134256
C           -4.87732362343645       -4.33582592259859        1.32719396268576
C           -3.51931692858305       -1.84950309373202        1.52487873372061
C           -2.90313092705302       -0.58621348127589        1.57579036702680
C           -2.05194842270634        2.47528784520294       -1.11895951662555
C           -1.16577929097150        1.30404126470830       -1.57149598774329
C            0.12377344680153        1.26924202660506       -0.81898966639672
N            0.75314828532680        0.04132432147587       -0.53721708702605
C            2.13006285761865        0.00720698420433       -0.18949339946864
C            3.02788525327540       -0.49334381456627       -1.33771869655875
C            4.45260924114026       -0.41340075279166       -0.90154143868229
C            5.18465466684668        0.74291999676129       -1.08944568214683
C            6.49360044910170        0.83705890782599       -0.63446899515230
C            7.08727120118884       -0.22491066084815        0.02585299658060
O            8.36462282912250       -0.24806708681452        0.50781738297022
C            9.17165996893105        0.88051146697055        0.29761234462183
C            6.33875371184028       -1.40215149728927        0.24426740178770
O            6.99860411783005       -2.39622407612006        0.90936684843275
C            6.32281225179527       -3.60497677675544        1.13420035406507
C            5.03510332874302       -1.47627474442589       -0.21277585326680
C            0.03824964789954       -1.22123883934563       -0.57341669041648
C           -3.95346540993241        3.18077313684496        0.38208661262680
C           -4.61582951898019        2.96242152968597        1.75010342008588
C           -3.58536668102976        4.66424791306118        0.25706812596870
H           -4.55986496636966        0.86180042139406       -0.95536120994228
H           -6.73434478260232        0.37404147429193       -1.56002319224479
H           -7.13491208300620       -0.95892460089441       -2.65622956124509
H           -5.55721364457229       -0.15840856097554       -2.79923000557868
H           -5.08754016287658       -4.02332346923622        2.35630145204562
H           -5.54908439371643       -5.14299191493341        1.04383511424613
H           -3.83847720231580       -4.68045542232631        1.25789923021212
H           -3.21253441940048       -2.62601043322935        2.21251376900780
H           -2.14508624755680       -0.42495576115940        2.31566921305756
H           -2.84125016405660        2.62863511039343       -1.87381917164601
H           -1.41383513159043        3.36679410751252       -1.01161878079179
H           -1.71182370664472        0.37450462121742       -1.41666703603977
H           -1.01386478450340        1.41567408531885       -2.65689794227277
H           -0.83721033551217        1.65466271710302        0.91443381768196
H            0.80259899009127        2.09289303626690       -0.99984702941432
H            2.27685157195968       -0.63846491082425        0.68935233754238
H            2.42219106535647        1.02750959023781        0.06667254375644
H            2.85055639581406        0.14416875436491       -2.20624312726466
H            2.75398621683620       -1.51812769367868       -1.59093031199088
H            4.74465912812673        1.58312758887991       -1.60588092123664
H            7.04480965016871        1.74867073436123       -0.80694402227098
H            8.76086972754074        1.76769367201760        0.79001847487067
H            9.30785101599119        1.08941684016024       -0.76970557055885
H           10.13773982570948        0.63995405038736        0.74026494538687
H            7.03590524420095       -4.25019694037093        1.64575386565760
H            5.44192702574085       -3.46864032161520        1.77290353872014
H            6.01582413153005       -4.08036173532513        0.19649893257914
H            4.44595389824748       -2.36489110862166       -0.05061770624465
H           -0.37106637929050       -1.44958417909541       -1.56766127965709
H           -0.80996295744361       -1.21280395321149        0.12475621262751
H            0.71048553622669       -2.04011997782767       -0.29782621198216
H           -4.65252521713729        2.95066686369505       -0.43245756385195
H           -3.90657950759183        3.19648198966668        2.54400524413268
H           -4.90584660620388        1.92933258702640        1.85221620262485
H           -5.50459257305596        3.57470794619249        1.86239210899684
H           -2.86456374023716        4.94961604123077        1.02187503264536
H           -3.18716874181197        4.91761101010313       -0.72402893088082
H           -4.48225512993284        5.25268314462299        0.42477818858833
H           -1.25841021998726        1.93715090433328        3.05215142183861
