72
 energy: 72.532089236838 xtb: 6.6.1 (8d0f1dd)
N           -1.87968463430293        2.49075433316733        2.45422710771065
C           -1.74246930417303        2.31315936604568        1.19774676957942
C           -2.64724688482872        2.53824402762125        0.18070321362847
C           -3.24333186738401        0.26929815409249        0.82907959868067
C           -4.23385703771099        0.06402296777979       -0.13747160713471
C           -4.88194962505163       -1.15004069471291       -0.24472888665146
O           -5.87231762367286       -1.45582059696951       -1.14659984573480
C           -6.31171944695696       -0.45438111591033       -2.03212598433670
C           -4.52091147269334       -2.19184371212973        0.62726613158925
O           -5.20176789335656       -3.35529525425820        0.42169667331828
C           -4.94204560409909       -4.40367342528374        1.30339860328920
C           -3.54786563694780       -1.97839462238277        1.58285281727622
C           -2.90326281064760       -0.74062377292166        1.67590253169425
C           -1.99401109518313        2.56410099749498       -1.14912903258277
C           -1.15453838526581        1.32015181745272       -1.52365756252376
C            0.13607167567563        1.26787444032976       -0.77138651779711
N            0.77691012896464        0.07085397929891       -0.55463799406068
C            2.16100151801463        0.02674469311422       -0.19925192007288
C            3.04968047591020       -0.47444114611696       -1.35163883272128
C            4.47787525234244       -0.40381749410649       -0.91546816428388
C            5.21465178168427        0.74835943037908       -1.10185966886797
C            6.52406048400468        0.83591852245406       -0.64472717683206
C            7.11285814722852       -0.22901473813387        0.01567585206927
O            8.38837692509940       -0.25905873838709        0.49891950451874
C            9.20096501548943        0.86653046568121        0.29081153474262
C            6.35772152813321       -1.40281897134169        0.23282025703890
O            7.01044024441342       -2.39947325211543        0.89889762546426
C            6.32431443244732       -3.60223944466222        1.12773180929657
C            5.05345523972373       -1.46953049293575       -0.22622688288919
C            0.06181442658793       -1.20018899312893       -0.55981269290144
C           -3.96786711161683        3.23022262650732        0.31972870747170
C           -4.64009405567388        3.01418528908857        1.68880071419336
C           -3.64482120212848        4.71731468056393        0.17108716332060
H           -4.53042130077968        0.83285595962722       -0.83533651000589
H           -6.70261548540634        0.40660150249647       -1.48749612164063
H           -7.12299930529030       -0.89356784710732       -2.61308274035524
H           -5.52760908846758       -0.12624947181319       -2.72858291364844
H           -5.14777580383494       -4.11152062943662        2.34031175345214
H           -5.62557139408359       -5.19085018629206        0.99557354011627
H           -3.90614332168753       -4.76040931330748        1.22945505814651
H           -3.26340198532784       -2.76614317408202        2.25900842920650
H           -2.14224218787276       -0.57269568605492        2.40580283031911
H           -2.78319211189213        2.68482614798072       -1.89682388899024
H           -1.32068801701958        3.43184911351638       -1.07719170307198
H           -1.72669546690737        0.41202389296570       -1.34093392342867
H           -0.98097570251407        1.40023841855910       -2.60805770224629
H           -0.81189733814754        1.70480033399745        0.78741016968094
H            0.80044489462549        2.11443215882443       -0.93746030515523
H            2.31337264680674       -0.62253578370084        0.67621372667388
H            2.45267108276788        1.04631825831200        0.05718009470425
H            2.87547619560165        0.16740812524645       -2.21730794620041
H            2.77364126809842       -1.49736106482446       -1.61102087611351
H            4.77957115604310        1.59102442035178       -1.61847190136757
H            7.07905896935395        1.74550420351048       -0.81533981636209
H            8.79296004459428        1.75501957798597        0.78281930279240
H            9.33910049571107        1.07483689936132       -0.77627552707486
H           10.16559685172527        0.62188746359841        0.73448273449628
H            7.03081541952589       -4.25224999260574        1.64181701732437
H            5.44404600720671       -3.45703173707873        1.76559157471320
H            6.01430512966397       -4.07764392660691        0.19126614703037
H            4.45839756312457       -2.35399918301385       -0.06352121496931
H           -0.40425622848613       -1.40101583181949       -1.53253135026219
H           -0.74438075755368       -1.20657470489961        0.18672852611118
H            0.75119642797051       -2.02411211753387       -0.34810343556352
H           -4.63996947404568        2.94829366037556       -0.50371681674717
H           -3.95038478946027        3.27813292128918        2.49299660749116
H           -4.91088314367010        1.98053360398108        1.81196493907858
H           -5.54731499959632        3.60512361033331        1.78137049623216
H           -2.94315179759556        5.02856542506633        0.94639884551383
H           -3.22818346325397        4.95052597958412       -0.80746139250481
H           -4.55891365980357        5.27751868811638        0.31149218222247
H           -1.44801421919272        1.70003723576176        2.93035778881820
