72
 energy: 60.766007549691 xtb: 6.6.1 (8d0f1dd)
N           -1.92179372915429        2.47503034859632        2.49366520924205
C           -1.73483062168882        2.27493363638975        1.24573241121097
C           -2.68152139213846        2.43029583724408        0.20914078957585
C           -3.24828496292937        0.34870146392369        0.76424003076022
C           -4.24135518080705        0.09280113473107       -0.18730165335641
C           -4.87740187764673       -1.13089759927039       -0.27605699348562
O           -5.86464168308767       -1.45854495320369       -1.16980774864513
C           -6.32028663611978       -0.47137744039188       -2.06264299206567
C           -4.50659917067443       -2.15992267332290        0.60721215487145
O           -5.17538827389228       -3.33142429134576        0.41980537860864
C           -4.90975186445599       -4.37018703200532        1.31435094330823
C           -3.53183792433058       -1.91370028424650        1.55373110815141
C           -2.90160214165860       -0.66263476128863        1.62698682892415
C           -2.02328736444500        2.52076514480702       -1.13176522204536
C           -1.15983794923759        1.31273096878060       -1.54838716327782
C            0.13921968071586        1.26314846538194       -0.81772327754728
N            0.76327947980137        0.05478443289094       -0.54714171574036
C            2.14500466892420        0.01602897422816       -0.19575077861109
C            3.03875470422307       -0.48465385201755       -1.34567566869324
C            4.46518446702684       -0.40886826756319       -0.90863416465673
C            5.19936668299335        0.74555718893683       -1.09539038179515
C            6.50850107122668        0.83655406644740       -0.63904601901004
C            7.09989782695228       -0.22691473289371        0.02117022337178
O            8.37624271314412       -0.25357737137286        0.50361475010616
C            9.18631891434355        0.87341772457274        0.29443133238503
C            6.34807230341908       -1.40254982923528        0.23890206390574
O            7.00443698152032       -2.39782563016405        0.90427543974006
C            6.32371426456047       -3.60384838938215        1.13082036089290
C            5.04412510597051       -1.47298214546473       -0.21933056621757
C            0.04913644191044       -1.21163427879670       -0.56700476227185
C           -3.96101857833461        3.20337165797745        0.35007319699595
C           -4.62973291013491        2.98864462824068        1.71833484284141
C           -3.61530866594861        4.68999934327265        0.21386504738805
H           -4.54242308060439        0.84795447650510       -0.89473331979831
H           -6.71782744670529        0.39052221229198       -1.52394962664961
H           -7.12873997751354       -0.92618208453784       -2.63456270129856
H           -5.54199051215270       -0.14242913472072       -2.76416271328001
H           -5.11763428727629       -4.06851832572383        2.34759222390657
H           -5.58796020267055       -5.16678415841148        1.01821230752159
H           -3.87269166320260       -4.72178710442123        1.24247754265258
H           -3.23535295509921       -2.69667300634599        2.23417325322981
H           -2.14375583054085       -0.49773199969876        2.36332148276133
H           -2.81296335818909        2.66065481029124       -1.88548577619664
H           -1.36656111431904        3.40052609929063       -1.04238220200777
H           -1.71815718949139        0.39491378947855       -1.37591135790887
H           -1.00195967676155        1.40789749695183       -2.63407681694759
H           -0.83318138152776        1.68218994253229        0.86720980698956
H            0.80824061148285        2.10607269296382       -0.97823286512589
H            2.29451619683969       -0.63114742857530        0.68145726860344
H            2.43712007777735        1.03603032546389        0.06031296269159
H            2.86332311837530        0.15498356756352       -2.21290561344921
H            2.76434736368252       -1.50869196764335       -1.60187910120455
H            4.76166354672614        1.58704308984818       -1.61174187734140
H            7.06153766258177        1.74724445623066       -0.81033102906041
H            8.77705513895961        1.76122438072330        0.78677376844289
H            9.32333338246699        1.08208776451688       -0.77276234507130
H           10.15171657096829        0.63073290105658        0.73743728681675
H            7.03362438890113       -4.25155909702798        1.64338862851077
H            5.44316033429759       -3.46337633368753        1.76915815563217
H            6.01522636300856       -4.07894881024166        0.19358563983905
H            4.45195863294870       -2.35948736493389       -0.05682973716444
H           -0.38869076547805       -1.42602330293800       -1.55071289508602
H           -0.77822419388590       -1.21023314564912        0.15561103136824
H            0.73111898500261       -2.03294126185053       -0.32324211077071
H           -4.64633690009463        2.94795760142109       -0.46970331852889
H           -3.93069957798323        3.23836531772084        2.51742404658821
H           -4.90893604015369        1.95498419730048        1.83274999453891
H           -5.52856113776082        3.58924573648411        1.81916359378674
H           -2.90609548910942        4.98997306815702        0.98519390992213
H           -3.20703709729432        4.93364040915874       -0.76555711313701
H           -4.52158642297598        5.26367919900635        0.36660975030530
H           -1.34478038338097        1.81988988987783        2.99078070863539
