72
 energy: 69.734182663786 xtb: 6.6.1 (8d0f1dd)
N           -1.76927055707203        2.34596309167020        2.41095874075851
C           -1.85968809278614        2.40696401673372        1.17926966241485
C           -2.60249717887587        2.68438784590902        0.13767971133829
C           -3.23485301962248        0.12959063761061        0.93795416183572
C           -4.21892003140989        0.01011999943364       -0.04294584000375
C           -4.89582727526001       -1.18595035366077       -0.18501052458233
O           -5.88039304453060       -1.44216869699678       -1.10169612782706
C           -6.29438959898011       -0.41846823462452       -1.97297283011736
C           -4.55007671970391       -2.25329264640048        0.66468949756907
O           -5.25149391337724       -3.39627043016352        0.43137759953989
C           -5.00541740204987       -4.47088159312053        1.28083372030607
C           -3.57758414805357       -2.09552357638229        1.63295109757244
C           -2.90692100349986       -0.88053396500307        1.76360103158275
C           -1.94021316778532        2.63434084257554       -1.18264289267515
C           -1.14566511947695        1.34368256882007       -1.48571482282156
C            0.09703108947218        1.29437772982891       -0.61954517922767
N            0.80093921473381        0.09334042961544       -0.59666102864680
C            2.18505451489807        0.04677719270592       -0.20943489780644
C            3.07385310218534       -0.45420286321631       -1.36380881310571
C            4.50243659797958       -0.39422493033996       -0.93043804201350
C            5.24524284705795        0.75375888398478       -1.11498387512371
C            6.55473370342350        0.83444441969988       -0.65637949942534
C            7.13769079850955       -0.23372064247995        0.00391478947041
O            8.41407462111144       -0.27089859465095        0.48958219108849
C            9.22989406232653        0.85199415188134        0.28399949528639
C            6.37654468191015       -1.40285689999791        0.21973133652004
O            7.02354056296821       -2.40396444808205        0.88748602805751
C            6.32615688099708       -3.59941405136268        1.12052043230200
C            5.07216789905783       -1.46256356340016       -0.24061196915696
C            0.08300558614268       -1.17508984316522       -0.54475067625602
C           -3.97767925346937        3.27877585290442        0.25934808144752
C           -4.66428886947857        3.06660890472509        1.62984104171680
C           -3.70275565360435        4.76406614399630        0.08415823963601
H           -4.50412420915249        0.80279444356993       -0.72145440411031
H           -6.67373166889770        0.43796052242890       -1.41485276277366
H           -7.11054084658443       -0.83107248524970       -2.56777187908606
H           -5.49973600302704       -0.09383837347734       -2.65908869719823
H           -5.20852478499845       -4.20019225671632        2.32432604718496
H           -5.70121093862182       -5.23566134340199        0.94599515384200
H           -3.97354704296463       -4.83892669784168        1.20000623101232
H           -3.30707732475641       -2.89949363510573        2.29154373302389
H           -2.14780466212181       -0.71639256499194        2.49010041265633
H           -2.72979232100686        2.73433280079530       -1.92349384907616
H           -1.24876942835889        3.48669293791679       -1.15536741701428
H           -1.74265429781042        0.45325988206063       -1.27698747359599
H           -0.93612128684705        1.37554135965570       -2.56283706553611
H           -0.59104978416326        1.63817697742351        0.57185109838010
H            0.78453086492918        2.12212583144162       -0.86202890796012
H            2.34960067582592       -0.60557313531112        0.66531480323062
H            2.48000072870661        1.06397198875468        0.05099479811262
H            2.89920303055134        0.19170104778222       -2.22575720066669
H            2.79195953279657       -1.47439804804582       -1.62920223474025
H            4.81436115332190        1.59868265668804       -1.63155800045862
H            7.11390498069665        1.74172130052406       -0.82588298378313
H            8.82428989509370        1.74204734564886        0.77546972591194
H            9.37051070207816        1.06042458099972       -0.78282139984135
H           10.19292153369722        0.60332110459077        0.72924840486474
H            7.02661749028262       -4.25315897483460        1.63734778874998
H            5.44650652781690       -3.44512860286483        1.75761238313524
H            6.01287203155486       -4.07575105422811        0.18575347304429
H            4.47085822477136       -2.34276572101834       -0.07730551727760
H           -0.42582529889218       -1.35940596613715       -1.49291511356159
H           -0.67722224263589       -1.20294795793690        0.24648468503718
H            0.77986410589270       -1.99969890551919       -0.39794137116826
H           -4.61227472408396        2.93288813884904       -0.56735919279979
H           -3.99953713866854        3.36487801914208        2.44555205071808
H           -4.92013816021591        2.03640327476426        1.78861804439522
H           -5.58874504049049        3.63497313209958        1.70003813755390
H           -3.02155567341227        5.10931279607399        0.86772639188789
H           -3.27096330207021        4.98264741428918       -0.89095644104107
H           -4.63415467526560        5.29637527871385        0.19787269099252
H           -1.64481690409166        1.40418096759383        2.78083389674019
