72
 energy: -2.128754312755 xtb: 6.6.1 (8d0f1dd)
N           -1.33685049176141        2.96593402524156        2.30275509728125
C           -1.88132421058360        3.04464484494863        1.27833648497472
C           -2.54106677099802        3.13267534304209        0.08383209032225
C           -3.15433314355567       -0.31422989910621        1.34120329861887
C           -4.10647469031304       -0.27355771318248        0.32980397538172
C           -4.86345190223734       -1.39255738231339        0.03668210147571
O           -5.83440355026628       -1.46035767779800       -0.91806017694091
C           -6.14429703438907       -0.30315153429627       -1.64963402822490
C           -4.65414015536264       -2.58443011137808        0.76822931587201
O           -5.45346366689249       -3.62665225581725        0.40756813282986
C           -5.36420757333791       -4.83044797627963        1.12529045581346
C           -3.69533196150605       -2.61161722504149        1.76538147122359
C           -2.94891058086248       -1.47522292850889        2.05231813752433
C           -1.82141665076320        2.88340229548842       -1.20169238604158
C           -1.16511416115819        1.49530175160725       -1.30909493539475
C            0.07236975775777        1.35090611026003       -0.42147370717712
N            0.83522669565394        0.16626157056808       -0.76074337511392
C            2.20283826102920        0.15185735129032       -0.27778894098881
C            3.13976948784455       -0.34884588607886       -1.39317484807572
C            4.57028698915454       -0.31894995288092       -0.94554046814272
C            5.35754319018524        0.79663689867175       -1.15791075332775
C            6.67335929375749        0.83601902771301       -0.71634887580505
C            7.21967729484746       -0.24458438839209       -0.04859694586205
O            8.49437103491451       -0.32279052016733        0.42759845709082
C            9.35446400063684        0.77123558371576        0.24159693347763
C            6.42274667071310       -1.39006752076007        0.17809077199898
O            7.04754532595535       -2.40508589886294        0.83852797363534
C            6.33551007622091       -3.58698589319103        1.09806501200882
C            5.11504401629738       -1.40960306468448       -0.26930775364773
C            0.12624175111154       -1.07542225310911       -0.54611709093145
C           -3.95445160387756        3.62958554283325        0.06505304909697
C           -4.70405201435357        3.32897174214993        1.36295331134669
C           -3.94114956398569        5.14813011803459       -0.19062036241446
H           -4.25553167171422        0.64338041136860       -0.21868911392199
H           -6.46299249135450        0.51763737625292       -0.99755137317900
H           -6.97122707516681       -0.58503949991172       -2.30018207910920
H           -5.29956304581473        0.02739851443605       -2.26464387161023
H           -5.58092582026983       -4.68536257573376        2.18901201281350
H           -6.12081406983254       -5.48222432241093        0.69023146788868
H           -4.37960176861584       -5.29782907832228        1.01589489447243
H           -3.52315402435544       -3.51148547566203        2.33497225229100
H           -2.21322596941146       -1.50669992739739        2.84135064938849
H           -2.53102754380154        2.99952531311893       -2.02508639690102
H           -1.03567114187662        3.63849847906283       -1.33108235297182
H           -1.89940545808589        0.73031631680506       -1.05507310093524
H           -0.85703229210995        1.34338560913542       -2.34601215521598
H           -0.22486709976952        1.35661633959685        0.63822695192017
H            0.72108884339827        2.21500884811278       -0.59345857075694
H            2.32441386341196       -0.48149683409531        0.61272150387448
H            2.50625433301591        1.16399815046276       -0.00176709834241
H            3.00360257561384        0.29502468884133       -2.26285923919003
H            2.85133700766672       -1.36265239941255       -1.67411496392487
H            4.95165209715267        1.65024967466167       -1.68012719768951
H            7.26295987707646        1.71962382657926       -0.90441333466343
H            8.97784933955436        1.67359696929076        0.73525766078307
H            9.52096144711161        0.98161606519044       -0.82048100527127
H           10.29730498650466        0.47773698539435        0.70130485016776
H            7.03546134853871       -4.23574181620039        1.62312165247489
H            5.46421246777848       -3.40549126371236        1.73656764289099
H            6.01255808695856       -4.07851838193872        0.17386003026053
H            4.49730325941580       -2.27959297288188       -0.10565232855856
H           -0.66939067285126       -1.17151251438693       -1.28475734546377
H           -0.32244884638290       -1.14999704109386        0.45578428968903
H            0.81256203939178       -1.90826139883495       -0.68321542863512
H           -4.47900453339970        3.15595741782974       -0.77612062323066
H           -4.22315702451186        3.82519536726668        2.20295300381556
H           -4.72373134685653        2.26060015992736        1.56731926084482
H           -5.72904745865013        3.68697408942471        1.29122358999312
H           -3.42586683275430        5.65694110113072        0.62121293668629
H           -3.43378323835753        5.38031229577808       -1.12448374593423
H           -4.96084093231676        5.52183820415038       -0.24519006414481
H           -2.58786614138517        0.57276201141762        1.56925164563707
