72
 energy: 63.171052040517 xtb: 6.6.1 (8d0f1dd)
N           -1.71532185591683        2.29295265979861        2.37376202771770
C           -1.90337913677613        2.45974777339564        1.17642158528189
C           -2.59161033857656        2.73931708802665        0.11726958639314
C           -3.23254033614311        0.06618174578640        0.98366505763586
C           -4.20985206628994       -0.01629143385557       -0.00055907936679
C           -4.89807345367864       -1.20389658964114       -0.15650551234509
O           -5.88110819394473       -1.43536923366331       -1.07782304804608
C           -6.28508505990388       -0.40090617569115       -1.94301923796408
C           -4.56216297714754       -2.28341358164047        0.68373456935660
O           -5.27446519501010       -3.41343953382014        0.44027670088996
C           -5.03621222502055       -4.50320493792979        1.27051746435449
C           -3.58886628097746       -2.15006285190981        1.65525882305126
C           -2.90589138961175       -0.94442234417368        1.80167057563906
C           -1.91916669427393        2.66306857037921       -1.19755756750486
C           -1.14182768347323        1.35468765850195       -1.46800937871220
C            0.08974293164921        1.31169316563434       -0.57115101017770
N            0.82007869969888        0.09908931999615       -0.62609760825983
C            2.19734175066761        0.05697561418234       -0.21384976847481
C            3.08745707004980       -0.44394883696732       -1.36961520954858
C            4.51484449809197       -0.38908707391507       -0.93824295458074
C            5.26049233731445        0.75703763197814       -1.12130880666508
C            6.56974756497210        0.83420211333672       -0.66187229809265
C            7.14953349594742       -0.23579876461214       -0.00186047191689
O            8.42683332781879       -0.27680604622648        0.48483443083660
C            9.24404040214724        0.84461151473511        0.28050961771965
C            6.38507304426023       -1.40209754718244        0.21320600831907
O            7.02804815553524       -2.40562141872439        0.88170019361761
C            6.32639083342568       -3.59784061880377        1.11667124955315
C            5.08104046027816       -1.45858757167791       -0.24760761654812
C            0.09502353225665       -1.16223137055532       -0.54090543354265
C           -3.98160100097911        3.30432069643281        0.22871850580308
C           -4.67548155705769        3.09338734638262        1.60056922530384
C           -3.72851080053267        4.78548610466703        0.03887797500775
H           -4.48745888827563        0.78748035577723       -0.66873408074378
H           -6.65908185330143        0.45298638002788       -1.37842500889159
H           -7.10348126329283       -0.80091892180433       -2.54384830449625
H           -5.48612902312521       -0.07807376254268       -2.62465636431444
H           -5.23824682693764       -4.24340986903679        2.31680960269527
H           -5.73848348161600       -5.25595311826883        0.92169452443975
H           -4.00673862345026       -4.87682563443284        1.18509953468533
H           -3.32568821923708       -2.96224324807198        2.30602519263078
H           -2.14693866058924       -0.78647301069836        2.52856117982748
H           -2.70402693384694        2.75885317507564       -1.94294038336684
H           -1.21733612704127        3.50648034839586       -1.19128886645073
H           -1.75578732310727        0.47448834924401       -1.24648212087321
H           -0.92235982442739        1.35812782775918       -2.54395664470234
H           -0.50430639633927        1.60180257889710        0.51598290862973
H            0.78199161516111        2.13088045909295       -0.83537770958430
H            2.36856787338495       -0.59643934253547        0.66107570541991
H            2.49390282646758        1.07284411058200        0.04844018531549
H            2.91027555841156        0.20426001263489       -2.22894546692124
H            2.80073784837315       -1.46240289957172       -1.63743114719394
H            4.83128417221023        1.60302849809532       -1.63754989010143
H            7.13098089841038        1.74024921066207       -0.83073591816370
H            8.83997417790412        1.73562694983240        0.77182931012341
H            9.38577111171669        1.05330656598995       -0.78620267779943
H           10.20631197281998        0.59373121744695        0.72634644423155
H            7.02480743684757       -4.25194664306862        1.63524560124169
H            5.44730357152465       -3.43958696274241        1.75371490786612
H            6.01175143879981       -4.07483357166751        0.18277869029134
H            4.47650301991557       -2.33649280064051       -0.08369275148784
H           -0.44334758619822       -1.33710719648322       -1.47343150220351
H           -0.64014429624421       -1.20231081317417        0.27401503600302
H            0.79348676037190       -1.99046641333389       -0.42683118886729
H           -4.60307460947317        2.93529766399828       -0.60007678366852
H           -4.02164761849211        3.40923719925147        2.41917501768871
H           -4.91808913139896        2.06402181471010        1.77693302697792
H           -5.60933717967923        3.64799541233545        1.65999192372000
H           -3.05974536494972        5.14769224351125        0.82694511191710
H           -3.29147568613816        4.99624401003573       -0.93499568753962
H           -4.66863247122720        5.30233161733958        0.13958771530579
H           -1.74913488814743        1.32000404838898        2.68890751895686
