72
 energy: 9.161101178528 xtb: 6.6.1 (8d0f1dd)
N           -1.77330286370039        2.69508344906866        2.41725821553615
C           -1.69056875121677        2.18980613158536        1.26581530061568
C           -2.76402194079611        2.14490165310562        0.26040024659846
C           -3.27994067893446        0.57193792990918        0.53362611049739
C           -4.27386466059172        0.18219212178542       -0.38336379553354
C           -4.86072394104017       -1.06916553074052       -0.40380729246010
O           -5.83996966668154       -1.47532971693891       -1.26623043552664
C           -6.35674263279232       -0.54233822782060       -2.18102293962825
C           -4.45181773248022       -2.04504890560186        0.52514729358243
O           -5.07860869428582       -3.24664625251855        0.41252481781863
C           -4.78478418300030       -4.23536922094362        1.36104355060676
C           -3.47859998824983       -1.70068239044913        1.44277704700150
C           -2.90444609259182       -0.41884536953512        1.44684241658409
C           -2.12738131381971        2.38241037925336       -1.12643196199339
C           -1.21065112391651        1.25335013120439       -1.62824735106668
C            0.06679002452948        1.20595121196145       -0.85725780389865
N            0.70260565532880       -0.00587518145481       -0.54030195483510
C            2.07679671886294       -0.01671261002503       -0.17646275876422
C            2.98908776083104       -0.51704055835057       -1.31374658255034
C            4.41328969531545       -0.42354990517272       -0.87567259765944
C            5.13836846298447        0.73683434069552       -1.06951480830432
C            6.44798359823832        0.83921180813025       -0.61993094719522
C            7.04915877241727       -0.21804651525157        0.04013550087665
O            8.32675131492312       -0.23184836771422        0.51798647276800
C            9.12779041851285        0.90132829590144        0.30736461137977
C            6.30992075811544       -1.40130906049998        0.26035639138529
O            6.97937518221924       -2.39023351533827        0.92100313837809
C            6.32039920500862       -3.60905280986324        1.14261713049244
C            5.00602382982765       -1.48431112159008       -0.19194416799625
C           -0.00029291094807       -1.26306170269364       -0.59354981927391
C           -3.92559483863866        3.13171314253175        0.47014388512316
C           -4.56863130613603        2.88305786056713        1.83554737181951
C           -3.50353379926298        4.60321359686109        0.38540971414932
H           -4.60088096878374        0.89997449933486       -1.11496999806461
H           -6.78236553717931        0.32323722072906       -1.66703088513411
H           -7.15105716351851       -1.05842176041343       -2.71720840789987
H           -5.60274406840975       -0.20783755200586       -2.90349550930977
H           -4.99994324573538       -3.89157386489783        2.37846557386912
H           -5.43840361752506       -5.07014015577819        1.11533301385997
H           -3.74038360244112       -4.56128356388633        1.29962235328197
H           -3.14796909128470       -2.44230247748553        2.15824752757424
H           -2.14879181443201       -0.22507841002116        2.18789143672630
H           -2.92845961142211        2.52794780248172       -1.86831912087813
H           -1.52700470077384        3.29713189862195       -1.05725432921376
H           -1.74282025915766        0.31056784079868       -1.51924487774097
H           -1.05568249555593        1.41738535802998       -2.71198561212326
H           -0.79540225729319        1.61012277957091        0.89475117652592
H            0.73454829798151        2.04006142642639       -0.99522097205034
H            2.21347990537129       -0.65404490112856        0.70775613597812
H            2.36991351857299        1.00427918555168        0.07971587579818
H            2.81345841575515        0.11062262794579       -2.18996469675239
H            2.72416149467739       -1.54590931802183       -1.55920101121972
H            4.69199038895735        1.57361364613938       -1.58602887964925
H            6.99323202865420        1.75326716118286       -0.79660315503760
H            8.71349688913143        1.78619854473492        0.80134356798582
H            9.26159063404035        1.11138808447831       -0.75982824785932
H           10.09481444031733        0.66410247000443        0.74909642635962
H            7.04451919230182       -4.24545635185133        1.64960480279706
H            5.44000670710944       -3.48586636893259        1.78388896209278
H            6.01804383388821       -4.08515302985739        0.20355666555899
H            4.42698367400379       -2.38003666305247       -0.03099726054514
H           -0.31522386939933       -1.52958402975411       -1.61125708394890
H           -0.90341701171096       -1.22594237249622        0.02666000705194
H            0.64643423499946       -2.05910330644373       -0.22040920153320
H           -4.65985183131294        2.96016986437500       -0.32532292444514
H           -3.83921412445516        3.07134207262795        2.61982491918517
H           -4.89178536144916        1.85302727333585        1.90480626891388
H           -5.43024070125615        3.52637464322584        1.98054261705138
H           -2.74964160536581        4.83377634594679        1.13299513398206
H           -3.12618313804647        4.87716383263537       -0.59826886930103
H           -4.37137981835364        5.22579982464439        0.59472207284410
H           -0.99240273311807        2.31816644855882        2.94576226709757
