72
 energy: 62.172568978652 xtb: 6.6.1 (8d0f1dd)
N           -1.64320295077726        2.18351967840407        2.20775132873387
C           -1.97438824023081        2.70421338724775        1.16655035778982
C           -2.53782101368134        2.98413155386758        0.05123619313083
C           -3.23438717980306       -0.16624722415748        1.18256778637360
C           -4.16771215441700       -0.12139895147754        0.16671834137970
C           -4.89818435153192       -1.27648573383059       -0.04833901272303
O           -5.89392177388675       -1.42334573525275       -0.98007140320551
C           -6.25011753836702       -0.33907411003028       -1.81826521398870
C           -4.60933372123782       -2.40840700900369        0.74247325060410
O           -5.36466606519635       -3.49378459135192        0.43971256671606
C           -5.16618737318861       -4.62800776182580        1.21732942558197
C           -3.63583729289042       -2.37793981986447        1.72132133389793
C           -2.91562510081941       -1.21269642798577        1.94304174023283
C           -1.85280095385516        2.78944681018251       -1.25231817140558
C           -1.15570770668584        1.42643927643496       -1.40786092818850
C            0.06088426384526        1.35095466014552       -0.49190504309635
N            0.82564179308703        0.14574045743361       -0.65825166028968
C            2.21445833313193        0.11313422702754       -0.24730889333213
C            3.12048098696500       -0.39423435512182       -1.39427658528268
C            4.55297676655391       -0.35910638684798       -0.95363933212095
C            5.31708694352876        0.77272780346500       -1.14345682419749
C            6.62764221992889        0.83268915775639       -0.68597085787177
C            7.19471503980381       -0.24224038448962       -0.02423494836366
O            8.47139892875668       -0.29997594898453        0.45481148891998
C            9.30018656060271        0.81637439218053        0.26456950644942
C            6.41693496727415       -1.40090366760262        0.18759590361027
O            7.04473119855925       -2.40895803731940        0.85530538427094
C            6.33036233727611       -3.59072057730529        1.10296775660128
C            5.11191382698635       -1.43886030111115       -0.27081260712942
C            0.12309970406596       -1.11413562779142       -0.53292715835041
C           -3.97182335636388        3.43395429913227        0.13693332390616
C           -4.71184258228981        3.19609772350460        1.48731259141875
C           -3.82354117149991        4.90132096083649       -0.12035339192716
H           -4.40376819988593        0.73320754818189       -0.46124748668964
H           -6.60266103674949        0.50421495020059       -1.22717516935556
H           -7.07264674150264       -0.68021421104221       -2.45106935618728
H           -5.43345913171718       -0.02104291601640       -2.47940606610142
H           -5.36349629718537       -4.41400077487695        2.27476055353703
H           -5.89559651038924       -5.32192757232458        0.81234079461705
H           -4.14754499819532       -5.03040527137968        1.12253056384140
H           -3.40789714075272       -3.22167979915841        2.34110730977291
H           -2.15614236219630       -1.06878117107844        2.67510412436923
H           -2.61675249591362        2.85965957440925       -2.01443687497899
H           -1.10309031298064        3.58516369021918       -1.33481322294397
H           -1.81744925064749        0.58856667304387       -1.15908480010031
H           -0.87251360660940        1.33321050985504       -2.46401679326339
H           -0.36686111907378        1.46882600775206        0.55413444694323
H            0.75043984876699        2.17692498338585       -0.72269906299148
H            2.40286417753391       -0.53904937538371        0.62299662493060
H            2.53176373478744        1.12038162698371        0.02626643770405
H            2.96115864064004        0.25010488013693       -2.25618561164805
H            2.83658710166651       -1.41318375356062       -1.67158863102713
H            4.89996830256696        1.62243171955826       -1.66306671660880
H            7.19884931830114        1.73137611669823       -0.85631069614582
H            8.90376426010566        1.71034392703485        0.75795849071548
H            9.44877067507182        1.02668933740831       -0.80022792287844
H           10.25688449786684        0.55136358465343        0.71455127322782
H            7.02573646532619       -4.24367353636709        1.62693129718948
H            5.45506225277148       -3.41716940410356        1.74129506315495
H            6.01109281279647       -4.07462646920949        0.17362142612588
H            4.50278738391505       -2.31484155761306       -0.10900952728326
H           -0.52952834470874       -1.25707928032314       -1.40161680394716
H           -0.50446411361281       -1.18883381820540        0.37251049817759
H            0.84134659097751       -1.93501257765709       -0.53326266625730
H           -4.53877181198280        2.99552511634216       -0.69873078895547
H           -4.13314069735916        3.56706987693157        2.33805201206378
H           -4.88058012759889        2.15845382546816        1.69114412775605
H           -5.68253141984833        3.68194603544096        1.48651447767184
H           -3.21477537104711        5.31906445349077        0.68849527954168
H           -3.35463969249211        5.08755680069157       -1.08662380354915
H           -4.80657502229589        5.31941292218146       -0.09138665836319
H           -2.10004334602170        1.21311343061872        2.20842909736279
