25
 energy: -42.126244389978 gnorm: 0.001891772905 xtb: 6.6.1 (8d0f1dd)
C            3.18055803091712        1.09871958574598       -0.00395731207312
N            2.37540374712122       -0.09030288199900       -0.05054305238552
C            2.79557634249624       -1.33717831526560       -0.24847008291659
N            1.75388540680945       -2.20767392641558       -0.17493033677315
C            0.64158673480176       -1.48004378688993        0.08270880698736
C            1.02113149701631       -0.13880546396846        0.16290611166782
C           -0.14926327261402        0.66413377944643        0.41258866169136
O           -0.29764870285700        1.86807175055472        0.52141089868512
N           -2.62257652721737        2.79455056554075       -1.36180567163982
C           -2.72179122995041        2.81793162562273       -0.12707575181492
C           -1.25950877081302       -0.39391683862330        0.49994792872550
O           -2.42929407802092       -0.22089648057020        0.71736221223301
N           -0.68088621219281       -1.66275370111128        0.27957884934385
C           -1.43011054711976       -2.89536284638737        0.25614829450844
H            3.59001245790825        1.23835361639585        0.99885686360739
H            4.00252895570899        1.02961189008167       -0.71400114617599
H            2.55549847957300        1.95783312810999       -0.24170081243120
H            3.80797040352806       -1.62738468062051       -0.44714703358767
H           -2.52181814723581        3.68200537172626        0.51231783565107
H           -2.34537001052342        3.61306800534277       -1.89267447709521
H           -3.03028149334416        1.91145122854946        0.38414371303397
H           -1.05658290378860       -3.58879970570813        1.01045580725207
H           -1.37943538809153       -3.35941369893675       -0.72985580675675
H           -2.46658813800813       -2.64694342946483        0.48030943915077
H            1.82743487999696       -3.20801624955427       -0.29540232098620
