  25
        -42.14305670
 C          3.2843876686        0.5712598577        0.0047871770
 N          2.2673665762       -0.2827551348        0.0017706242
 C          2.3127667674       -1.6380980471       -0.0107991921
 N          1.0456033875       -2.1468154373       -0.0081763868
 C          0.1713974857       -1.1077223473        0.0023836493
 C          0.9136490703        0.0665375137        0.0080382486
 C          0.2951568148        1.3651425782        0.0050727215
 O          0.8681105408        2.4325316372        0.0103632964
 N         -1.1029946271        1.2635263330       -0.0081720303
 C         -1.8642579945        2.5021729130       -0.0115958682
 C         -1.8638887019        0.1096557274       -0.0014966489
 O         -3.0662202395        0.1345630063        0.0005632368
 N         -1.1752038267       -1.1203060346       -0.0006061907
 C         -1.9358344978       -2.3513795266        0.0153102755
 H          4.3152647249        0.2067884654       -0.0124035635
 H          6.0454950295       -0.1649372565       -0.0948944624
 H          3.0681777569        1.6248995357        0.0154358711
 H          3.2048190551       -2.2298202783       -0.0160158833
 H         -1.1619026790        3.3329076457       -0.0044805245
 H         -2.4964029701        2.5490878297       -0.8999799094
 H         -2.5101137219        2.5442081878        0.8669277951
 H         -1.7212232482       -2.9217794438        0.9197865232
 H         -1.7122352939       -2.9517462294       -0.8674854670
 H         -2.9933502250       -2.0865030559        0.0052746582
 H          0.8229577919       -3.1308761245       -0.0140266262
