  72
        -99.28067341
 N         -1.7260152243        2.8359039086        2.4343214576
 C         -1.7586017218        2.1098295278        1.4153951279
 C         -2.9284720646        2.0248534939        0.4702733308
 C         -3.5131421287        0.6224417336        0.5056266966
 C         -4.4550493203        0.2441208444       -0.4513183854
 C         -5.0128267059       -1.0310564321       -0.4556465106
 O         -5.9336249039       -1.4921818618       -1.3278465476
 C         -6.4338411214       -0.6229226113       -2.3213372834
 C         -4.5896448044       -1.9357028934        0.5287587254
 O         -5.1303318984       -3.2602577458        0.4658564932
 C         -4.0489695429       -4.2691196159        0.1949102630
 C         -3.6667888975       -1.5740261801        1.4916832030
 C         -3.1384653577       -0.2939435525        1.4842038809
 C         -2.3564790436        2.3213747617       -0.9418145372
 C         -1.4945553975        1.1940491713       -1.5370999963
 C         -0.1457629076        1.1052448352       -0.9314818198
 N          0.4929140172       -0.0284583757       -0.6317931031
 C          1.8875634234       -0.0014005552       -0.2624496412
 C          2.8085023732       -0.3494426269       -1.4483671675
 C          4.2448190539       -0.2487663461       -1.0177361959
 C          4.9308419255        0.9491494873       -1.1180563306
 C          6.2426987893        1.0545852945       -0.6803286419
 C          6.8922562209       -0.0383138954       -0.1272670030
 O          8.1593702691       -0.0493516082        0.3348001092
 C          8.9228811649        1.1321543708        0.2647396347
 C          6.1971586441       -1.2728008763       -0.0222433001
 O          6.9052804745       -2.2866163939        0.5212303139
 C          6.3082573412       -3.5553507156        0.6353398522
 C          4.8871790857       -1.3544797489       -0.4642868561
 C         -0.1363700713       -1.3188654009       -0.7704868852
 C         -4.0687787209        3.0342964768        0.7996034097
 C         -4.7065708261        2.7333867104        2.1542563659
 C         -3.6116792895        4.4900120770        0.7587285622
 H         -4.7645239369        0.9529216596       -1.2003380373
 H         -6.9247639336        0.2473087355       -1.8776797813
 H         -7.1658307206       -1.2072820792       -2.8749242616
 H         -5.6424264707       -0.2964383658       -3.0017609977
 H         -5.5065929654       -3.5092815904        1.3275235958
 H         -4.4778126310       -5.2452292821        0.3795473839
 H         -3.7313403171       -4.1288205064       -0.8318890637
 H         -3.3617360107       -2.2940006263        2.2349812813
 H         -2.4449413040       -0.0079272510        2.2579421613
 H         -3.1860525558        2.5140071083       -1.6216224743
 H         -1.7585855892        3.2315569428       -0.8894719970
 H         -2.0254444375        0.2457099412       -1.4678670186
 H         -1.3676515540        1.4232798050       -2.6040518401
 H         -0.9102899515        1.4902112615        1.0718090644
 H          0.4279365327        2.0154362717       -0.8515972687
 H          2.0578133561       -0.7137389987        0.5493293337
 H          2.1442714869        0.9960649859        0.1001250245
 H          2.6115093941        0.3498574736       -2.2626521047
 H          2.5883637971       -1.3588928274       -1.7979790247
 H          4.4499170964        1.8134213361       -1.5506775152
 H          6.7530079006        1.9985927528       -0.7787491989
 H          8.4672960990        1.9393052067        0.8468009065
 H          9.0603444756        1.4603222084       -0.7700663211
 H          9.8904931724        0.8800564597        0.6943946723
 H          7.0685662635       -4.1974710113        1.0757375117
 H          5.4326606300       -3.5304524446        1.2924725996
 H          6.0208589118       -3.9538956760       -0.3428088023
 H          4.3517272790       -2.2884599033       -0.3938794572
 H         -0.3508995968       -1.5465041299       -1.8172027706
 H         -1.0714537100       -1.3526610078       -0.2061900328
 H          0.5275445091       -2.0854263105       -0.3795690855
 H         -4.8361951507        2.8994387855        0.0283421165
 H         -3.9784190673        2.8742500812        2.9458688335
 H         -5.0832102938        1.7138136071        2.1957741816
 H         -5.5383164759        3.4120425376        2.3233222604
 H         -2.8179008628        4.6550419870        1.4799056777
 H         -3.2662964145        4.7792670946       -0.2300632844
 H         -4.4481267941        5.1329721239        1.0195465501
 H         -0.8664301477        2.8354491691        2.9755703229
