  25
        -42.18248208
 C          3.3062402673        1.8541180571        0.7764190617
 N          2.2246816792       -0.1174817619       -0.2304201316
 C          2.4123667677        1.2735384840       -0.3175951170
 N          0.7081077346       -2.7690421949       -0.0921207526
 C          0.2184912746       -1.6005498711       -0.0448007771
 C          0.9558082146       -0.3461467305       -0.1237258206
 C          0.2353166907        0.8987109490       -0.1369425304
 O          1.0765181898        1.8856260848       -0.2671899780
 N         -1.0744844580        0.9586611271       -0.0329671042
 C         -1.8128894760        2.2071459422       -0.0428351478
 C         -1.8412572497       -0.2512024727        0.0787354336
 O         -3.0302029358       -0.1699006338        0.1779212304
 N         -1.1486298236       -1.4399994851        0.0640020836
 C         -1.9302729952       -2.6649032150        0.1139907098
 H          4.2741995886        1.3633880076        0.7301282167
 H          3.4250691003        2.9226234603        0.6067434358
 H          2.8662830322        1.6848229529        1.7591892802
 H          2.8438417053        1.5240044296       -1.3012180592
 H         -1.1093775491        3.0354882311       -0.0543599552
 H         -2.4567636124        2.2467822468       -0.9224752211
 H         -2.4498820367        2.2579493773        0.8407680612
 H         -1.5125193818       -3.3242113634        0.8739928911
 H         -1.8715857349       -3.1757035591       -0.8481501606
 H         -2.9652071944       -2.4208323119        0.3413604698
 H          1.7094455388       -2.8811728773       -0.1716257428
