25
 energy: 0.000000000000 xtb: 6.6.1 (8d0f1dd)
C            3.23720132972391        1.16630909158653        0.08434468864950
N            2.29877796055224        0.07527476373246        0.03981602671198
C            2.58028186251803       -1.21425391179017        0.03006175752192
N            1.43813944744728       -1.93419254010258        0.00098261751768
C            0.39035684826767       -1.05887462812143       -0.00790371763344
C            0.93510047688824        0.21347817468824        0.01709077332874
C            0.09450143016486        1.40504290868848       -0.00410946993748
O            0.49712746915594        2.54126690785742       -0.00342325656480
N           -1.25076628431515        1.06271869620815       -0.03085477937476
C           -2.21907191394203        2.15522079838987       -0.05001256521996
C           -1.81739470187490       -0.20012724136556       -0.04692818139228
O           -2.99983858926755       -0.37846413507442       -0.07008877579474
N           -0.92618577614240       -1.30210203518959       -0.03682761236648
C           -1.46982251276835       -2.64643077634382       -0.06029819901142
H            3.71247229913541        1.21471443890471        1.06488839270555
H            4.00791460421487        1.03430799217987       -0.67357688121503
H            2.69909982127087        2.09770098766290       -0.09130154035862
H            3.56654087521359       -1.63682977417947        0.04233139674524
H           -1.67107945562430        3.09322822573871       -0.02552706696334
H           -2.82428927394145        2.09428605349656       -0.95318074103337
H           -2.87644002486466        2.07745706351925        0.81450059976605
H           -1.17061985538665       -3.19584861009707        0.83242224714061
H           -1.14560246782873       -3.17511580834413       -0.95688266944647
H           -2.55549768731684       -2.55659960601237       -0.07459039105944
H            1.38130842369251       -2.94313824728853       -0.01389874052104
25
 energy: -5.202310614339 xtb: 6.6.1 (8d0f1dd)
C            3.29670743746043        1.16952123725083        0.08239899412539
N            2.33021052374169        0.11316830206678        0.02298885320070
C            2.60436791834845       -1.25004074879622        0.04245504739956
N            1.40337309024086       -1.92429550535816        0.00760052569533
C            0.40202078963503       -1.02481887935631       -0.02413529789108
C            0.93232912490733        0.25879962663147       -0.01516281147833
C            0.09285302761029        1.39650551947632       -0.06613291420343
O            0.44970609952986        2.57720592417913       -0.01772680134668
N           -1.31840987479214        1.03313807373647       -0.10444121459234
C           -2.28723866918784        2.10726459402050       -0.01323291240105
C           -1.84608938109114       -0.20878562848979       -0.14952191557344
O           -3.04049193412259       -0.42422236176869       -0.17704553757904
N           -0.93671683704565       -1.26942502590041       -0.07522180399759
C           -1.45939208082822       -2.61051207984040       -0.04025428274199
H            3.76051694962282        1.23448846960414        1.07221455183636
H            4.09953548588734        1.02513373292257       -0.65458458789987
H            2.79453325606043        2.11204089313734       -0.11773622735276
H            3.56959382532835       -1.70159494092515        0.04821378556208
H           -1.69214210771103        3.01588656314523        0.05592890975727
H           -2.92123887498316        2.12279234194809       -0.90136100701832
H           -2.93379749513067        1.97289199882237        0.86102363631263
H           -1.12568098077836       -3.14719430477366        0.84947818097816
H           -1.14903304135566       -3.15013082566167       -0.92647505288712
H           -2.54445345599132       -2.51357731881428       -0.03109036939486
H            1.32112630994520       -2.92929556828641       -0.00635347678684
25
 energy: -0.415327359889 xtb: 6.6.1 (8d0f1dd)
C            3.35885788053488        1.15838023858718        0.07865880366628
N            2.36049297240819        0.12222988339424        0.00207789338977
C            2.60127230329268       -1.26346238548172        0.06695277086194
N            1.37976969136701       -1.90049759317723        0.02138776680812
C            0.40399596409042       -0.97745354532110       -0.04802183342619
C            0.94536952791355        0.30413966391507       -0.05205804597851
C            0.06663837272576        1.43125540983782       -0.10624350050688
O            0.37574523029131        2.61477886476043       -0.02523296144399
N           -1.36748112397883        1.04236108258162       -0.19520116322716
C           -2.35729251605793        2.07497364599231        0.02992783513321
C           -1.86419663539442       -0.20953779561082       -0.26766421518546
O           -3.05020611810426       -0.46251869925779       -0.32207386992465
N           -0.93025763481017       -1.23669239825979       -0.13020734731729
C           -1.44070094125862       -2.57882207568380       -0.01607070512873
H            3.80719596403738        1.24205436932475        1.07542964066955
H            4.19301249955541        1.00083163354130       -0.62874145249775
H            2.89855278031170        2.11592815198634       -0.14401746227727
H            3.54801849533423       -1.76152431184269        0.06177637280026
H           -1.74490338265060        2.96668560597728        0.16125790586405
H           -3.01399937898586        2.15931805109195       -0.83842439419567
H           -2.98468198490923        1.85578437839145        0.90597983297983
H           -1.08061172475976       -3.09044119399271        0.87706078603863
H           -1.17008355172826       -3.16408572977722       -0.87871456238597
H           -2.52416730427109       -2.47589964715654        0.02374350357338
H            1.26690449428855       -2.90523358049578        0.01261394956055
25
 energy: 6.856402139070 xtb: 6.6.1 (8d0f1dd)
C            3.41893615232080        1.14403643954484        0.07221379005411
N            2.38728240282394        0.13282229167010       -0.01464272308577
C            2.59574337716758       -1.27101117718898        0.10196413647790
N            1.35656823894218       -1.87586957058735        0.03620017465655
C            0.40666731040658       -0.93258573553593       -0.07841593422848
C            0.95515254515059        0.34763720524278       -0.09026901003809
C            0.03917733336432        1.47055705387549       -0.14888778155365
O            0.31521614035796        2.65225175529693       -0.02965892127193
N           -1.40745848667580        1.07981647289581       -0.28839209788049
C           -2.42506052708647        2.04906335416111        0.07504343883885
C           -1.87083762444240       -0.19466414177566       -0.38526583769965
O           -3.04869704725706       -0.48488988728709       -0.45925712943410
N           -0.92335806354142       -1.20332625248765       -0.19311614211069
C           -1.42365511998257       -2.54395431060863        0.00516540009666
H            3.85488464237261        1.24750863754382        1.07442563164759
H            4.27752073304019        0.94931716719318       -0.60540688058015
H            3.00356828724985        2.11445891365519       -0.18113865694433
H            3.52174138883233       -1.81682252708048        0.08155149469519
H           -1.81739100956366        2.93512922408587        0.27023232123919
H           -3.09960916914698        2.19969368411682       -0.77111725367385
H           -3.03501878185442        1.73257966114406        0.93803266185800
H           -1.03126885922733       -3.02930803274888        0.89963262976238
H           -1.20267819650001       -3.17863774278736       -0.83215610797133
H           -2.50414512291343       -2.44015363195465        0.08269402040049
H            1.21351244057369       -2.87897789720034        0.03322998072583
25
 energy: 13.506546628012 xtb: 6.6.1 (8d0f1dd)
C            3.47196921783214        1.12618621431746        0.06892459140695
N            2.39668067970259        0.15104220107750        0.00684934379424
C            2.58809074290215       -1.25263643527478        0.11782902050394
N            1.34177574221415       -1.85070671417449        0.05599129115725
C            0.40966718709157       -0.90221331297987       -0.11425406077480
C            0.96097035185771        0.37939448756917       -0.12274563061770
C            0.02136301844705        1.48946667901369       -0.12812254185432
O            0.26084572736881        2.67852703868263       -0.03049875717645
N           -1.45163274469949        1.09922540969137       -0.27392668556849
C           -2.49145959601390        2.02165985483923        0.13007529187767
C           -1.87039763198259       -0.17588370426366       -0.48218393826576
O           -3.03829578266763       -0.49990703943940       -0.59960342856143
N           -0.91283840731462       -1.18082236883746       -0.25829994240486
C           -1.41155401788386       -2.51171335027357        0.02578451154611
H            3.90412951222777        1.25042412095045        1.07236969706676
H            4.33932355259984        0.86833647082641       -0.58186127308661
H            3.10840338108095        2.10601456194833       -0.22440212484541
H            3.48996662239249       -1.85574872807653        0.10530169062809
H           -1.89585595589452        2.90755881170317        0.37638405150420
H           -3.16971807425625        2.23549508969464       -0.70065384511629
H           -3.09933373695379        1.61550365969887        0.95036729852865
H           -0.98745938302579       -2.97213290523423        0.92014907765687
H           -1.24191687508222       -3.19271750546868       -0.78429642752954
H           -2.48753586905932       -2.40885312168379        0.14349000208105
H            1.17005348929295       -2.85262730173057        0.05315058774573
25
 energy: 22.509920371553 xtb: 6.6.1 (8d0f1dd)
C            3.51939666446071        1.10131318216788        0.06350568216013
N            2.41424204206658        0.15517093849962        0.00042755721985
C            2.58495404878101       -1.23554472974088        0.13837123626585
N            1.34340820275059       -1.82929331316791        0.05771948434586
C            0.41699646710489       -0.87843208040907       -0.15023870593911
C            0.97469475452410        0.40501164942336       -0.14670208996077
C            0.01690266005892        1.49995819708478       -0.07158300692843
O            0.24759250046153        2.69520508623821       -0.02318727869140
N           -1.50433052606271        1.10226016363051       -0.22488800445362
C           -2.56158232449543        1.98877814475692        0.18936947564262
C           -1.86829726227958       -0.15471549085732       -0.57582728744842
O           -3.02259503370123       -0.50560580433139       -0.74430927366289
N           -0.90075181481029       -1.16045186615282       -0.32334133043400
C           -1.40772391022879       -2.47395480813716        0.04775988651757
H            3.95093141577569        1.24420602742175        1.06793381539821
H            4.37492851096743        0.77271951527764       -0.56190218065619
H            3.20118129281650        2.08183903654028       -0.27858155883532
H            3.46884484736661       -1.87503084861566        0.14175278550624
H           -1.98408412619957        2.87943156173362        0.47784761024740
H           -3.23711990376056        2.26473938716917       -0.62595333031568
H           -3.16779551822807        1.49907137604496        0.95986893616848
H           -0.95137883192407       -2.91063753410850        0.93997956935340
H           -1.28662309381781       -3.19324726326907       -0.73415109626293
H           -2.47755301289003       -2.37201773121455        0.20667539187417
H            1.13270142231718       -2.82717580056239        0.07599771865788
25
 energy: 30.456538827062 xtb: 6.6.1 (8d0f1dd)
C            3.55461566085688        1.07402601479075        0.05559712380234
N            2.41755359615256        0.17750138820475        0.00211232193151
C            2.57197670165260       -1.20078356872868        0.15867945009402
N            1.34561615253569       -1.80466202750135        0.06307705868608
C            0.41236955369869       -0.85170661717746       -0.13632251390744
C            0.97715383030335        0.43166045058608       -0.12368365498565
C            0.03342889483436        1.51033536905752       -0.01385975744248
O            0.25384163820562        2.71021048366303       -0.00514859159159
N           -1.57368197383675        1.09933184880753       -0.18964214355828
C           -2.63809201908785        1.94835123977522        0.24166887782975
C           -1.88018222940476       -0.13719713239101       -0.61746116276554
O           -3.00817655935407       -0.51006829658156       -0.87497452742906
N           -0.89814936212641       -1.13356127348780       -0.33388882748831
C           -1.40634265019991       -2.43735983227771        0.06848485008772
H            3.95874814904043        1.22108735871237        1.06820001076433
H            4.39837114391850        0.67061881579263       -0.53635051603705
H            3.28583487512613        2.04807014680963       -0.34140077042406
H            3.47114332992400       -1.81231251299300        0.16371209708621
H           -2.08064002175364        2.84615538181215        0.57296841230813
H           -3.31327023793516        2.28523629331211       -0.55184062913209
H           -3.24011614749725        1.38548289895552        0.96567475572451
H           -0.92501752340326       -2.85736297755915        0.95549009080142
H           -1.30902422504589       -3.14361636927889       -0.72886165987169
H           -2.46983169466935       -2.34020065196934        0.26609609051034
H            1.10274211108105       -2.79788837321125        0.10631702024088
25
 energy: 42.916684257612 xtb: 6.6.1 (8d0f1dd)
C            3.58447722109217        1.03428956668744        0.04426100771758
N            2.43042911127116        0.17813139109109       -0.00403711451451
C            2.55857109530120       -1.18450673340800        0.17004191418777
N            1.33810654096838       -1.78359124101678        0.05443601438483
C            0.40199982146350       -0.82744251672685       -0.11404343738600
C            0.99171729414506        0.44942976472915       -0.08704012980132
C            0.08282858836791        1.53295806073788        0.00995616944853
O            0.22036754849689        2.74213205149956       -0.00063725607695
N           -1.65680018462551        1.09646491915275       -0.19303233161648
C           -2.72224246012994        1.91522258538542        0.27021182629221
C           -1.88473724692972       -0.10960906692521       -0.69813211400066
O           -2.98456174068707       -0.51355243428210       -1.01979198678443
N           -0.88999525426270       -1.10675660711681       -0.37763321314324
C           -1.40762684795170       -2.39663224445796        0.08724508674112
H            3.94004301694158        1.18623932462392        1.06963782815400
H            4.41881866889281        0.56397605614605       -0.50622059013909
H            3.36572964422051        1.99942712770570       -0.40613674254632
H            3.47425744040515       -1.75905925542513        0.19151806484001
H           -2.17630272470232        2.81275488080822        0.65247926899094
H           -3.41085828827266        2.29199640403469       -0.48885687785740
H           -3.28404274928090        1.27519912495627        0.95976468521236
H           -0.89877644432731       -2.79609745463923        0.96917035264155
H           -1.36431492058339       -3.13160582708691       -0.69081826602945
H           -2.46167795275487       -2.29980414256232        0.32798363443575
H            1.09964329592649       -2.77518687430938        0.13213465588649
25
 energy: 58.678635638914 xtb: 6.6.1 (8d0f1dd)
C            3.62729671734226        0.99038599240704        0.03028331655634
N            2.46587824759658        0.15373640081427        0.00985255234027
C            2.57920384501997       -1.20051250288993        0.18800775655185
N            1.35802618477242       -1.78672631895146        0.04635178926767
C            0.42625405155123       -0.82890666155935       -0.13338037590478
C            1.03289834543315        0.43670185207633       -0.06218460415882
C            0.18575807895380        1.53724725836615        0.03156428095567
O            0.26453658351710        2.73936191918864        0.00749184808620
N           -1.76371815380055        1.09878879981136       -0.17807312568326
C           -2.83543771177005        1.88802165310588        0.28930554809281
C           -1.89560265346586       -0.07565651852988       -0.71798377754215
O           -2.94156083069980       -0.52016511522260       -1.15170524588201
N           -0.87067376766313       -1.07054928749876       -0.35232071880528
C           -1.40091017852788       -2.35829671542846        0.10666013730299
H            3.98560453984618        1.17539506438412        1.04729084968057
H            4.44874514385465        0.46359062625844       -0.48195493457913
H            3.44422863720525        1.94266643160831       -0.46856409532436
H            3.48083912625878       -1.76292054798621        0.26299390517317
H           -2.28890438430212        2.77838204315081        0.71887895521790
H           -3.51387837781877        2.26801726345099       -0.46872025258193
H           -3.40513196663020        1.19959369011164        0.92982654597499
H           -0.87401693010096       -2.75089711659519        0.98018180952670
H           -1.40784629596759       -3.08495780439322       -0.68498710309341
H           -2.44693788569874       -2.25602524105311        0.38415195020357
H            1.15318962305409       -2.77692996695541        0.14502466329482
25
 energy: 74.390442478194 xtb: 6.6.1 (8d0f1dd)
C            3.67444605667444        0.94878732513425        0.01993644991113
N            2.50227421795425        0.12786117353792        0.04050471165594
C            2.60625961081548       -1.21994303909548        0.21255147675637
N            1.38718378922527       -1.79664821483852        0.04243354701918
C            0.44947461843310       -0.83348604005348       -0.12163604836561
C            1.08391007398721        0.41919436599964       -0.03803996909156
C            0.30045304518358        1.53459235336234        0.06458835636020
O            0.27427106495839        2.72735913191339        0.04058246537943
N           -1.90053781904527        1.08452538366752       -0.16760317415994
C           -2.94843030112343        1.89733332137734        0.26763389983577
C           -1.94431991531509       -0.04554207781427       -0.75673227150214
O           -2.90262340649245       -0.54168865855600       -1.30063470939309
N           -0.85357690972141       -1.03891135901145       -0.29919537147028
C           -1.38965985817005       -2.32622032137365        0.12846461333535
H            4.01786274385534        1.17422716686444        1.02845908168937
H            4.49304319648191        0.37037867786887       -0.44619832398352
H            3.52761320162324        1.88660881551163       -0.52511313264544
H            3.51634946175014       -1.75207167228057        0.27230609510903
H           -2.38984929016649        2.74416914374942        0.77986109425394
H           -3.60616473754053        2.28235625879479       -0.50464028235487
H           -3.54566708624476        1.19637493067170        0.87536714743889
H           -0.84319458463290       -2.70961248602773        0.99221452268898
H           -1.44766168255375       -3.03473147513583       -0.67772488853794
H           -2.42427013982185       -2.22004528993332        0.44224704803024
H            1.18293282569061       -2.77689879137115        0.16831395767458
25
 energy: 86.678119031537 xtb: 6.6.1 (8d0f1dd)
C            3.71135018296979        0.91543128300229        0.02552844881331
N            2.54197295875555        0.09013355240522        0.05171950719076
C            2.64012849089756       -1.25866113002465        0.20737849974281
N            1.41045677639639       -1.82122981459004        0.03508889446529
C            0.46908879946206       -0.85059373251902       -0.10079173481656
C            1.14179571038015        0.39246520702581       -0.02644937938055
C            0.44012996727189        1.53333511049256        0.09137701665171
O            0.29901652029979        2.70832016761511        0.08799218333988
N           -2.06272013478979        1.05792018439140       -0.15864073544257
C           -3.06619108451022        1.92120456669444        0.24262148444555
C           -2.04317037689404       -0.00642033319231       -0.80267943154204
O           -2.86404034492842       -0.56542688493173       -1.46213762846115
N           -0.83025030881561       -1.01522919897299       -0.24204379976088
C           -1.38940483746536       -2.29427787975924        0.15084984121318
H            4.01664319232683        1.21299082226870        1.03002827392986
H            4.52511440901154        0.30479241703448       -0.37747419887100
H            3.60998709712277        1.82931962581529       -0.56648036421065
H            3.54779182991559       -1.79466997226794        0.23992219308324
H           -2.47179304338121        2.69532084776760        0.81242916831108
H           -3.64870200600668        2.33460044293251       -0.57917364898242
H           -3.68759583294284        1.21944590169931        0.80900852775738
H           -0.81375427490390       -2.68935082894009        0.99378952708403
H           -1.49321398694805       -2.98216131653430       -0.67280822207674
H           -2.41135268400235       -2.17429969729740        0.49328553567576
H            1.14936420655814       -2.77945820947280        0.20216445099632
25
 energy: 91.923780823179 xtb: 6.6.1 (8d0f1dd)
C            3.76400269205949        0.86892798115417        0.01845270797458
N            2.59046695904646        0.05881271230305        0.04197640932764
C            2.68707186672011       -1.28589864445385        0.17572251858645
N            1.45580436239108       -1.84444894785148        0.01959417415277
C            0.50153437225793       -0.87300814545879       -0.07877734293700
C            1.20470872915824        0.37216742399277       -0.01499483866667
C            0.57507205401796        1.53120074284274        0.11301649866825
O            0.32538022341988        2.68119810650727        0.12971435629827
N           -2.28346770066613        1.04072692674572       -0.18433732585534
C           -3.18462023340993        1.96545318926088        0.26423833189080
C           -2.22061299632187        0.06417439952675       -0.87303387641609
O           -2.81648216199199       -0.59507743210634       -1.63444279055658
N           -0.78058149683362       -0.99660823624525       -0.16952183520614
C           -1.38034211364593       -2.26436533116934        0.16464246873477
H            4.04829797202504        1.23722805003757        1.00903645787555
H            4.55954295641745        0.20346654647663       -0.34200200488401
H            3.69862958367905        1.76044268756260       -0.59906813772882
H            3.59912314140167       -1.81060405639984        0.17757621570291
H           -2.55079818547541        2.67925301735607        0.86294191617966
H           -3.75714916650028        2.39072829844818       -0.55952899133485
H           -3.82745821206620        1.29051839547499        0.81368929664133
H           -0.76432515737830       -2.70380923153804        0.95986376085539
H           -1.53550863851111       -2.91787036062832       -0.68446366987718
H           -2.39104015712137       -2.11751260895634        0.53999101695834
H            1.18836226373740       -2.79090382924225        0.19825221962898
25
 energy: 89.972263125587 xtb: 6.6.1 (8d0f1dd)
C            3.80524949254519        0.85030315613300        0.01027399002263
N            2.63504767508768        0.03727278282071        0.03339191972151
C            2.72223313661498       -1.30737505028644        0.12267928067490
N            1.48687401034850       -1.85877773608453        0.01501444066647
C            0.52945885603793       -0.88476482556836       -0.06175340867351
C            1.25836558136338        0.35951154078440       -0.00675551845330
C            0.67542864865621        1.53476546599387        0.11423886774964
O            0.38436432430888        2.67476213162279        0.15471259282381
N           -2.48393761649659        1.02928346488469       -0.20282429713514
C           -3.28349516084996        2.00167971422766        0.29637477113542
C           -2.33698614065883        0.10356995013344       -0.90742070323669
O           -2.70906340890748       -0.59105401832721       -1.74862378959112
N           -0.74821407827949       -0.96060897276918       -0.11335677782361
C           -1.38730146839419       -2.22337331135136        0.18117766227578
H            4.03823844474514        1.28826823564520        0.98489876752680
H            4.60895400401679        0.15861839017457       -0.27022237129047
H            3.74703148111885        1.70329094320852       -0.66953849130070
H            3.63224003002369       -1.83716383881653        0.10958465847800
H           -2.61414638104143        2.67304764721479        0.90337132090179
H           -3.85710753889171        2.43458511743879       -0.52619541147589
H           -3.93374214466813        1.38018459066226        0.87485534427904
H           -0.77688400536806       -2.67132085439396        0.96895270569679
H           -1.57720114307872       -2.86098733773386       -0.68215616761625
H           -2.38478055029655       -2.05861230601528        0.57578372570257
H            1.23635582768956       -2.80895230520482        0.16444567801727
25
 energy: 85.879052869352 xtb: 6.6.1 (8d0f1dd)
C            3.83754270578837        0.83989313013248       -0.00741838037736
N            2.68072756104090        0.01725352611392        0.03063868207018
C            2.76169228204870       -1.32817658215153        0.10841156792108
N            1.51926220172894       -1.86994462977519        0.02819206447609
C            0.56377233522410       -0.88598461295568       -0.03418445201847
C            1.31389636611995        0.35117301797436        0.00331786907589
C            0.76987086675806        1.54137529893603        0.11468304235058
O            0.45705784702074        2.67629987875273        0.16020062187747
N           -2.69518932752630        1.00088136735982       -0.24542001867821
C           -3.39499309444713        2.01216800772666        0.30650330232973
C           -2.45303806303248        0.12761389859453       -0.97418586667088
O           -2.62166137957229       -0.56905238863224       -1.86524865001741
N           -0.71302501296230       -0.92973520389659       -0.06293829054006
C           -1.38989521595818       -2.19301463955298        0.18974904879143
H            4.03948690703488        1.33875439122229        0.94470750081746
H            4.63689371369946        0.11479870550809       -0.19769262119665
H            3.81179217504514        1.64641154153027       -0.74674248396655
H            3.66927756123129       -1.85626326776848        0.03863784409372
H           -2.70615984564050        2.62227025907315        0.92638896170184
H           -3.96654903651536        2.47568567650665       -0.49986474685107
H           -4.04143553359114        1.43391061726870        0.92037124280695
H           -0.76769578471257       -2.69981505445188        0.92993862026137
H           -1.60705841011342       -2.79377111049695       -0.70088402367177
H           -2.37082847036188       -2.01225971595162        0.61406423796923
H            1.28332470669995       -2.82675068467791        0.14710170221816
25
 energy: 79.259351692908 xtb: 6.6.1 (8d0f1dd)
C            3.87052168862743        0.84200840969817        0.00056501656363
N            2.73171947166727       -0.00486988004413        0.03297711149336
C            2.80677711091097       -1.35314266082566        0.09728607367474
N            1.55908618597165       -1.88735979194010        0.03950326287469
C            0.60940050758489       -0.88864184331630       -0.00202285962635
C            1.37255246012514        0.34178613083073        0.01448556265359
C            0.85744547427563        1.54323353854100        0.11484907354937
O            0.52616738957976        2.67551868863182        0.14535966044283
N           -2.91054256499575        0.94142975863765       -0.24566565051775
C           -3.50720619717183        2.02210948891760        0.30562672543572
C           -2.54247420253044        0.18006761078324       -1.04213815177525
O           -2.53799913723607       -0.57777429093774       -1.89090810417305
N           -0.66436642361913       -0.91939609581848       -0.01203828852679
C           -1.36394244475202       -2.18085282836623        0.19632325838992
H            4.03251245034012        1.39932986655778        0.92040955356171
H            4.67034994273275        0.12268085166831       -0.10190663063957
H            3.87530040976429        1.58519568690367       -0.80994322322487
H            3.71302837348881       -1.87151244294812       -0.00459281393365
H           -2.79859091022906        2.62621001239501        0.91019554105388
H           -4.07565595806274        2.50616043362050       -0.48889608981150
H           -4.15539935048329        1.49393714325615        0.96632676394148
H           -0.77284445980606       -2.75454914279752        0.91215058332344
H           -1.59088827974018       -2.73604705911271       -0.71992006254773
H           -2.33828946200214       -1.96747091672643        0.63880817107552
H            1.31993648511575       -2.85091878700310        0.11665541809708
25
 energy: 72.297648866393 xtb: 6.6.1 (8d0f1dd)
C            3.91183504862256        0.82397574244034        0.01065933674290
N            2.78493704908221       -0.03645464370042        0.03016784974580
C            2.85293274791709       -1.38489462931547        0.08173713931716
N            1.60042695309312       -1.90703368486296        0.05478783181116
C            0.65571255139619       -0.89403837555764        0.03261209331304
C            1.43316254423967        0.32971964362954        0.02093323642721
C            0.93221858740436        1.53932573594596        0.11385155777786
O            0.60292003930539        2.67587847523336        0.12358040088575
N           -3.13467731181683        0.87861605975887       -0.27349140139512
C           -3.61857004458787        2.01915073942713        0.29593054104442
C           -2.64821258823899        0.22891899477134       -1.11343868798093
O           -2.50810990205943       -0.56792889858646       -1.92486355295728
N           -0.61614770494621       -0.91704374424499        0.03624731375246
C           -1.34462366749650       -2.16157532592974        0.20585399016476
H            4.02002089313331        1.44725428729500        0.89868845523970
H            4.72236556433768        0.11432489411497        0.00121960565846
H            3.90042236751147        1.50156012483137       -0.84756769957920
H            3.75575116142941       -1.91533565096029        0.01327927254348
H           -2.86686747874102        2.62558906780299        0.83807892457191
H           -4.19116767210141        2.53793087033314       -0.47186308735254
H           -4.25918738097793        1.54856881640750        1.01518540363396
H           -0.77593628809176       -2.79716124002175        0.88500063103055
H           -1.56225681283434       -2.68419610020247       -0.73375418822447
H           -2.31353333500305       -1.93054818548316        0.67360578608504
H            1.36048616714635       -2.87415411713348        0.09604934055569
25
 energy: 66.769964844558 xtb: 6.6.1 (8d0f1dd)
C            3.95163428967301        0.81019489133708        0.00806131888302
N            2.83802602404496       -0.06961187274136        0.03194138373015
C            2.90095183962608       -1.42092904570990        0.06436902626386
N            1.64068417133780       -1.93034566560712        0.06498512417232
C            0.70121351569882       -0.90816307349476        0.06756920501681
C            1.49208480219720        0.31207632983652        0.03343275933025
C            1.02173468904302        1.53635916380696        0.11321230407817
O            0.67781397705076        2.66987622452887        0.09479007142569
N           -3.31318661492972        0.84782084190996       -0.32044606481274
C           -3.71926005025543        2.02082654557560        0.28596437792982
C           -2.77003536642645        0.27914154452129       -1.19930325903579
O           -2.53246905095475       -0.51483429366898       -2.00336947644466
N           -0.56878177229866       -0.92116060513308        0.09798581588443
C           -1.31993393729861       -2.14807779023818        0.22218509806706
H            3.99688040470243        1.49346950487440        0.86464660142103
H            4.78007955490898        0.13040966597548        0.07857093025135
H            3.94824202086222        1.43302672651179       -0.90013836980912
H            3.79671234238953       -1.97547854385354        0.03322629431323
H           -2.94156014388166        2.65450373022236        0.76190029249252
H           -4.30272959739794        2.56307731390862       -0.45833599315209
H           -4.34796120682635        1.60068144829854        1.05555586469682
H           -0.79296873782704       -2.84767601198636        0.86754401812780
H           -1.51502307618868       -2.63140845081043       -0.74492998683417
H           -2.28349809227827       -1.91948623143827        0.71856025224774
H            1.39522943602909       -2.90059852510400        0.07308692802092
25
 energy: 63.042459985672 xtb: 6.6.1 (8d0f1dd)
C            4.00645794975696        0.79349979234166       -0.00842105665548
N            2.90100228996335       -0.09993147033441        0.03689512720612
C            2.95709577205080       -1.45242330020518        0.05330724839708
N            1.69208984430331       -1.95012785553916        0.08392810012928
C            0.75706726379721       -0.92307749399294        0.10440038256338
C            1.55686963314891        0.29618419911592        0.05438367980083
C            1.12767436903233        1.53948131065018        0.09434454232281
O            0.75399490503769        2.66480302809849        0.06880335073411
N           -3.45526591283002        0.84481511826926       -0.35323848073957
C           -3.81655318156323        2.03684259629500        0.28643168500532
C           -2.87588654665498        0.34081901967561       -1.26247038138893
O           -2.55545948780538       -0.42521045145578       -2.07216928945322
N           -0.51136777688523       -0.93516671151658        0.16264768846068
C           -1.27705012633366       -2.15107991045251        0.23274594909039
H            3.99018254497125        1.51577368599125        0.82459212067942
H            4.86666836947576        0.14960082190175        0.09131535867002
H            4.01853782493617        1.37976420124250       -0.95739005751155
H            3.84624144963535       -2.02363839142586        0.04234954209175
H           -3.02225712394368        2.68387704706511        0.70564641408908
H           -4.40837237544754        2.60492266677530       -0.42920158706624
H           -4.42803545444858        1.66710626907764        1.09671608786519
H           -0.77171145865842       -2.89325613767955        0.85424568653367
H           -1.45939876480078       -2.58933953002482       -0.75731913860380
H           -2.25020091037212       -1.92188198614647        0.69850034518246
H            1.44885763088949       -2.92090273261512        0.08363106908143
25
 energy: 59.309015645770 xtb: 6.6.1 (8d0f1dd)
C            4.06837482795718        0.76052407672229       -0.00175086746426
N            2.96526161614345       -0.13552008110863        0.06018966852987
C            3.01478655211391       -1.48815691967756        0.05170180110914
N            1.74261499283047       -1.97213794019614        0.10352611124253
C            0.81053055639641       -0.93913775792842        0.13514644469693
C            1.62364156650864        0.27825842186154        0.08560862033672
C            1.21415178251321        1.53156632894487        0.07982118532644
O            0.79620323969067        2.64084803177210        0.05339464513138
N           -3.55268864684312        0.84716770471707       -0.37453886460242
C           -3.91937609499560        2.04392211475105        0.28248548680906
C           -2.94135454172785        0.38167529257245       -1.28916569797496
O           -2.50485911041457       -0.33617033231527       -2.09137884097368
N           -0.45639638142410       -0.95211896826220        0.21932883887452
C           -1.23680719968007       -2.15555033177338        0.25080292980477
H            4.01735197515582        1.47692677500634        0.82436316193080
H            4.96429392826882        0.16081909284018        0.09628518227617
H            4.06968698333700        1.32754998706986       -0.94892594394528
H            3.90471744531380       -2.06590709764843        0.02283579845525
H           -3.05785333927043        2.62729970932840        0.63195071940128
H           -4.51185602940506        2.66579162388208       -0.39030399452590
H           -4.51679140634109        1.74754721547002        1.14069917407740
H           -0.78574293928998       -2.94366701937369        0.86340593352704
H           -1.39793274948021       -2.54559008697180       -0.75993185530892
H           -2.21853537888827       -1.90865916659099        0.66482728326506
H            1.50015984598773       -2.94404844281967        0.08912795406682
25
 energy: 58.817379984189 xtb: 6.6.1 (8d0f1dd)
C            4.10296616417504        0.74332238426519        0.00643528800466
N            2.98451503468774       -0.14211008440157        0.05966083347185
C            3.02305306607943       -1.49090053401405        0.04665337646465
N            1.75395186622689       -1.97682804021808        0.09502690236955
C            0.81963784694439       -0.94157026223371        0.13504842781620
C            1.64102193021461        0.27370701283177        0.09079389874486
C            1.22321585038377        1.52323793492500        0.08596755311664
O            0.77993710201570        2.61914816741197        0.05688212346724
N           -3.55235360152335        0.86964722972172       -0.38604119123160
C           -3.91904323579328        2.05993756160735        0.27730235219681
C           -2.96933901492520        0.33808440045621       -1.26991470119213
O           -2.48389926962276       -0.36283504577366       -2.05671224762617
N           -0.44488442553373       -0.96348016133402        0.21964662241327
C           -1.22724959622239       -2.16234924092275        0.24948011813385
H            4.04420112157954        1.46096884350466        0.82850690989237
H            5.02739467175170        0.17438737666551        0.09446596150353
H            4.11405802568647        1.29809686374534       -0.93591926100750
H            3.91417898166348       -2.07147809276038        0.01229794942374
H           -3.03663673071988        2.61794527929460        0.59711712510065
H           -4.53147412995784        2.69082681887097       -0.37201000107856
H           -4.50415915274814        1.78090561643167        1.15433797575287
H           -0.79526380352351       -2.96504676313586        0.86037059461988
H           -1.38422855520985       -2.53624100376506       -0.76652271922548
H           -2.20184687986440       -1.89150130824542        0.65732437938198
H            1.53446103920898       -2.95684616418342        0.08683564168169
