25
 energy: 0.000000000000 xtb: 6.6.1 (8d0f1dd)
C            3.23720163006194        1.16630919979326        0.08434469647475
N            2.29877817382611        0.07527477071623        0.03981603040599
C            2.58028210190900       -1.21425402444508        0.03006176031096
N            1.43813958087363       -1.93419271955128        0.00098261760884
C            0.39035688448383       -1.05887472636071       -0.00790371836672
C            0.93510056364412        0.21347819449412        0.01709077491437
C            0.09450143893243        1.40504303904423       -0.00410947031874
O            0.49712751527797        2.54126714362870       -0.00342325688240
N           -1.25076640035757        1.06271879480407       -0.03085478223738
C           -2.21907211982101        2.15522099834493       -0.05001256985998
C           -1.81739487048744       -0.20012725993278       -0.04692818574614
O           -2.99983886758376       -0.37846417018721       -0.07008878229737
N           -0.92618586207120       -1.30210215599479       -0.03682761578324
C           -1.46982264913417       -2.64643102187190       -0.06029820460571
H            3.71247264356769        1.21471455160235        1.06488849150277
H            4.00791497605742        1.03430808813993       -0.67357694370751
H            2.69910007168542        2.09770118228144       -0.09130154882931
H            3.56654120610678       -1.63682992603973        0.04233140067262
H           -1.67107961066214        3.09322851271934       -0.02552706933167
H           -2.82428953597071        2.09428624779827       -0.95318082946668
H           -2.87644029173232        2.07745725625962        0.81450067533302
H           -1.17061996399332       -3.19584890659852        0.83242232437030
H           -1.14560257411436       -3.17511610292205       -0.95688275822323
H           -2.55549792440841       -2.55659984320617       -0.07459039797972
H            1.38130855184625       -2.94313852034425       -0.01389874181052
25
 energy: -3.890675971942 xtb: 6.6.1 (8d0f1dd)
C            3.24531147582787        1.18325616821717        0.10161223300046
N            2.31405313841073        0.08382053132491        0.04521683176802
C            2.59779959204882       -1.24813756757617        0.01968766337647
N            1.42299487802294       -1.95412774601772       -0.01613042859800
C            0.39423726583095       -1.06801397554383       -0.01881339153408
C            0.93442963606343        0.20870504668889        0.00519026130127
C            0.10903246284143        1.38385199975501       -0.01173504494758
O            0.51063941706588        2.54728880303114       -0.00695318991735
N           -1.25435512764699        1.04541593499970       -0.03044388078895
C           -2.20980707155395        2.14642063815417       -0.04081306657876
C           -1.82274485541856       -0.20351917309600       -0.04539056456351
O           -3.02011948551697       -0.38037697044669       -0.06145055738770
N           -0.93827272346123       -1.30802454846675       -0.04119479091379
C           -1.48558345272525       -2.64715516659456       -0.06039943124028
H            3.68662050558785        1.43297582890444        1.10275795946069
H            4.05567999899821        1.00263676272749       -0.60797237177931
H            2.69730115340672        2.08589738805521       -0.15444641285536
H            3.57206060854085       -1.68199514697870        0.01097127118934
H           -1.64596272104310        3.07641287611932       -0.01311940942143
H           -2.81780100901361        2.09960076401376       -0.94378755412867
H           -2.86588273514813        2.07466789884581        0.82599599047389
H           -1.18364016741418       -3.20029081752186        0.83105040166720
H           -1.16526412915542       -3.18113576065233       -0.95704871865989
H           -2.57072113870160       -2.55072553505965       -0.07048929413346
H            1.35220915208954       -2.95841963071071       -0.03526060864191
25
 energy: 4.006645599297 xtb: 6.6.1 (8d0f1dd)
C            3.24925828700016        1.20540645926666        0.12366350654313
N            2.33578954494536        0.08826729450090        0.06149049669894
C            2.61352236023510       -1.28702065222325        0.00454473276308
N            1.40499509001437       -1.97289645705489       -0.04383550822607
C            0.39936489032163       -1.08030003395140       -0.03589506887331
C            0.93683781784101        0.20024087956019       -0.00314573816894
C            0.13093133644102        1.35077091652411       -0.01808440446458
O            0.51859155204878        2.53421938086674       -0.01353037999982
N           -1.25715791969685        1.02479231887697       -0.02808879072550
C           -2.19359675140798        2.13800184395935       -0.02644182173944
C           -1.82187698689987       -0.20794568928272       -0.04080586248006
O           -3.02817320883975       -0.38342560654534       -0.04652336173766
N           -0.95045489596424       -1.31466264249009       -0.04846542167302
C           -1.50639421504703       -2.64771831324326       -0.06072646619035
H            3.61212973541799        1.74993803685722        1.15154824617204
H            4.13849298458413        0.94079106546415       -0.48127264237092
H            2.69581080605077        2.06694548112884       -0.27915010966954
H            3.57150117813431       -1.73971310079245       -0.04784711280826
H           -1.60942631519224        3.05686640391252        0.00701839184203
H           -2.80595070601264        2.11009032347111       -0.92816911826626
H           -2.84816066010343        2.07112553143091        0.84249940284668
H           -1.20490114434196       -3.20703363462858        0.82911736265899
H           -1.19764545562559       -3.19147909243023       -0.95745496509979
H           -2.59124824611193       -2.54147473635406       -0.06359403430348
H            1.31997559014519       -2.97475737465138       -0.06981743658057
25
 energy: 13.951444647424 xtb: 6.6.1 (8d0f1dd)
C            3.24373807825701        1.22987923871837        0.14206376604059
N            2.34812692265451        0.08981602026100        0.07648618339690
C            2.61837979830364       -1.30558326842649       -0.00519802599203
N            1.39948425178087       -1.98359164378558       -0.06835739370050
C            0.40127733112371       -1.09240917912572       -0.04898768712565
C            0.94061318752699        0.19005849579818       -0.00336819475447
C            0.14320551758249        1.33353225606247       -0.02206580594924
O            0.51873374361737        2.52085375698735       -0.02611912898020
N           -1.25662432706385        1.01366803524986       -0.02776148824308
C           -2.17909187641487        2.13401343934202       -0.01655373207049
C           -1.82010099787122       -0.21479062023314       -0.03619281434302
O           -3.02831619895335       -0.38961002498262       -0.03267034343668
N           -0.95496110301102       -1.32295385909796       -0.05455095671480
C           -1.52368621315706       -2.65123366382931       -0.05782679162537
H            3.53178206534203        1.96460527320347        1.16916118249802
H            4.20438327747932        0.90336002623866       -0.34252834673785
H            2.71801114864105        2.05142732374753       -0.38913028742837
H            3.56659858359484       -1.77600090201101       -0.11023591395193
H           -1.57888477429702        3.04258326512347        0.02194935943443
H           -2.79326211321580        2.11956285298288       -0.91729224727520
H           -2.83113557950234        2.06802422190723        0.85422308635485
H           -1.22594585290395       -3.21240884544582        0.83248285340218
H           -1.23007625032627       -3.20468477034008       -0.95411883316929
H           -2.60836684703575       -2.53281262789512       -0.05351871977829
H            1.30833289578504       -2.98627619827762       -0.10285582370313
25
 energy: 18.312795007238 xtb: 6.6.1 (8d0f1dd)
C            3.23816521107237        1.24415014974213        0.15361157507915
N            2.35228314091053        0.08923543558858        0.08586808171641
C            2.61656302159043       -1.30863792461453       -0.00852105101301
N            1.40190102416186       -1.98733412251642       -0.08513637138271
C            0.40014332350635       -1.10119801981187       -0.05643087376064
C            0.94384898563729        0.18066796168572        0.00244910380520
C            0.14748978958547        1.32819518710416       -0.02506081764017
O            0.51564188922852        2.50894077150542       -0.04004968022205
N           -1.25414153509790        1.00912671656012       -0.03058882235963
C           -2.16937543316626        2.13237803414067       -0.01376659977198
C           -1.81879864497196       -0.22144949226915       -0.03364771316186
O           -3.02477088319424       -0.39458888246328       -0.02301153852285
N           -0.95494097368915       -1.33036975148765       -0.05891209462112
C           -1.53553816315106       -2.65574926377727       -0.05279323508461
H            3.48045489012980        2.07895648723636        1.15883965418200
H            4.22491211207932        0.90129011714964       -0.23660232142614
H            2.76184317385748        2.03016419383508       -0.43774523304874
H            3.55730452903925       -1.79027163523968       -0.16621295906442
H           -1.56061849520763        3.03431116116987        0.02821806938968
H           -2.78325250042058        2.12641544694835       -0.91412587254634
H           -2.82008900970830        2.06582536441999        0.85752974069378
H           -1.24223466928508       -3.21533946306829        0.83941452273272
H           -1.25498167012155       -3.21733408330947       -0.94757536700581
H           -2.61983308392881       -2.52659690264458       -0.04361604779555
H            1.31023863908023       -2.99175888371189       -0.12510025302397
25
 energy: 17.940854155256 xtb: 6.6.1 (8d0f1dd)
C            3.23617656050675        1.24716247491449        0.15945713563498
N            2.35016891558633        0.08914275949445        0.08909995816449
C            2.61222833422811       -1.29882819536971        0.00153939109402
N            1.40905395513696       -1.98350665053795       -0.09530145650989
C            0.39729480308182       -1.10343234805445       -0.06143283359075
C            0.94541519350415        0.17595747681102        0.00735556251419
C            0.14660740832348        1.33189163433539       -0.02744211727132
O            0.51320586880349        2.50297009778052       -0.04707602786897
N           -1.25066752856456        1.00926532510611       -0.03263470550656
C           -2.16674786981517        2.13159298939811       -0.00928042476693
C           -1.81854495612823       -0.22551194267075       -0.03239061920410
O           -3.02133073185003       -0.39548653219479       -0.01441786943043
N           -0.95217041367742       -1.33411895501572       -0.06376459198371
C           -1.53898374694013       -2.65892132440255       -0.05139470836259
H            3.42912440316380        2.12462315370365        1.14118766245883
H            4.23260310387527        0.88699791550560       -0.14167142207635
H            2.81450966476075        1.99812306831686       -0.50119707359104
H            3.54541765482503       -1.78125023566904       -0.20406185167884
H           -1.55901210299712        3.03272933012429        0.03560552036418
H           -2.78071474470801        2.13098779154060       -0.90899945144948
H           -2.81659454323239        2.06161200030290        0.86208419202746
H           -1.24666526573297       -3.21619598805321        0.84171583467895
H           -1.26590447594123       -3.22305845167063       -0.94530633007444
H           -2.62266985285590       -2.52446421343863       -0.03916788739080
H            1.32041503458361       -2.98925257808451       -0.13547199003350
25
 energy: 13.913922310928 xtb: 6.6.1 (8d0f1dd)
C            3.23628842041290        1.24637793900657        0.15895849670582
N            2.34358632414950        0.09282549960305        0.08661847109218
C            2.60905704384287       -1.28354946558331        0.01664497720276
N            1.41461400988604       -1.97486662103493       -0.09919783439275
C            0.39436814983678       -1.09939208399038       -0.06424368412271
C            0.94308989514010        0.17807073692935        0.00951335704835
C            0.14193295753212        1.33796554100349       -0.02779318240628
O            0.51065408555265        2.50432407017132       -0.04948864774717
N           -1.24948937188547        1.01022043892425       -0.03266743420300
C           -2.17012432681517        2.13027342344186       -0.00609888979912
C           -1.81964305932273       -0.22691275346001       -0.03100695551649
O           -3.02021056590778       -0.39454116917189       -0.00781473706831
N           -0.95002620574516       -1.33398185794148       -0.06701500619396
C           -1.53623632015483       -2.66006692691304       -0.05179432397586
H            3.38509975745827        2.10954253853798        1.11317121120856
H            4.23851563001418        0.86492223342402       -0.06717338171429
H            2.87082204670896        1.97199785458220       -0.54895086653098
H            3.53693028443534       -1.75898740986203       -0.22950540718264
H           -1.56670764961420        3.03410369399116        0.04042638870795
H           -2.78438490836484        2.13074616250850       -0.90545831409011
H           -2.81950054488205        2.05651486078924        0.86525492667595
H           -1.24153578960605       -3.21533353462025        0.84135295844189
H           -1.26445312027477       -3.22374078971713       -0.94542748227521
H           -2.61957910967280       -2.52626478062491       -0.03765662845062
H            1.32914703521254       -2.98121899782162       -0.13361411526658
25
 energy: 8.525897091646 xtb: 6.6.1 (8d0f1dd)
C            3.23851371393337        1.24727809865262        0.16227995210454
N            2.33704926829771        0.09915233459340        0.08885818705583
C            2.61008058271964       -1.27141490218307        0.03658104137735
N            1.41779775819602       -1.96672519015890       -0.10023137647214
C            0.39394625423640       -1.09319908178803       -0.06587093647444
C            0.93949256708587        0.18408240700695        0.01101404641986
C            0.13651002870162        1.34322436729480       -0.02658384375613
O            0.50870594354376        2.51024039552626       -0.04642367262795
N           -1.25071619300959        1.01140888414015       -0.03097287692435
C           -2.17586202201379        2.12928450560529       -0.00331201227690
C           -1.82052104453048       -0.22633411614805       -0.02991567244483
O           -3.02060444900846       -0.39406245167940       -0.00330640719016
N           -0.94835748083231       -1.33179572677127       -0.06965158533638
C           -1.53091824722883       -2.65950288240943       -0.05379845552204
H            3.34573944840561        2.07449140444196        1.08266140256499
H            4.23710328685655        0.84014422769147       -0.00670663230090
H            2.92274943773634        1.95001691452037       -0.60106173236289
H            3.53364693894702       -1.73630366623130       -0.25067169731594
H           -1.57598051954620        3.03610090267669        0.04382846735755
H           -2.79028093331920        2.12831587438920       -0.90263731151442
H           -2.82482128886541        2.05241972350187        0.86810776434413
H           -1.23297313117973       -3.21393146525197        0.83893221113637
H           -1.25750887268586       -3.22208121773555       -0.94766340867033
H           -2.61433477565597       -2.52872122041784       -0.03832792066185
H            1.33375839715234       -2.97305951709420       -0.12809363436162
25
 energy: 6.307618453944 xtb: 6.6.1 (8d0f1dd)
C            3.24156063879374        1.24803747032453        0.16139623359396
N            2.33451334367569        0.10217457933816        0.09010155364528
C            2.61350190231948       -1.27101940857628        0.04734248628317
N            1.41711938194841       -1.96498040301048       -0.09914084230669
C            0.39572907293337       -1.09032829416326       -0.06644925461264
C            0.93765628171186        0.18788523017089        0.00992017899289
C            0.13423403876120        1.34398848651696       -0.02534401564465
O            0.50806540183971        2.51357306639345       -0.04200363623061
N           -1.25281811167770        1.01227435546332       -0.02962991743882
C           -2.17904318901222        2.12960338799671       -0.00308196215327
C           -1.82021175459766       -0.22481153852514       -0.02962071303633
O           -3.02105376814764       -0.39461609563971       -0.00296864049361
N           -0.94782008920369       -1.32979028336736       -0.07033875869207
C           -1.52760850202176       -2.65806707258602       -0.05473768974395
H            3.32569283796249        2.05978265001233        1.06073996673505
H            4.23638649174023        0.83445409093508        0.00987203871309
H            2.94275678939192        1.93564526256468       -0.60535304614049
H            3.53396832807104       -1.72765406660807       -0.26113776616039
H           -1.57961556697026        3.03721000652711        0.04337262764097
H           -2.79350506525150        2.12653515047931       -0.90249146824867
H           -2.82783523423219        2.05242171736569        0.86842029810991
H           -1.22806696730619       -3.21254337785266        0.83777465006031
H           -1.25237651367644       -3.22039422410655       -0.94877701963789
H           -2.61129598207668       -2.52947368766746       -0.03899171202724
H            1.33228090296123       -2.97087839981323       -0.12183969505989
25
 energy: 6.112790743502 xtb: 6.6.1 (8d0f1dd)
C            3.24493201247438        1.24809368785342        0.16315291745766
N            2.33326854769066        0.10342393536449        0.09423207390150
C            2.61725476859320       -1.27601782759082        0.05882383940301
N            1.41478528081128       -1.96639807194923       -0.09800434523809
C            0.39791842165772       -1.08949809486058       -0.06743854773333
C            0.93654964079927        0.19000076793606        0.00754690400285
C            0.13330049716606        1.34335199435955       -0.02325692158653
O            0.50769312360431        2.51587979422589       -0.03449593224948
N           -1.25532192692308        1.01318514054204       -0.02724739155172
C           -2.18132258204902        2.13043005325999        0.00002243709903
C           -1.81971620001376       -0.22319359038532       -0.02934516263707
O           -3.02194218210073       -0.39574412449868       -0.00359531868231
N           -0.94785772982494       -1.32823214782613       -0.07163302260565
C           -1.52528287657098       -2.65664952733595       -0.05751090974965
H            3.30070522824378        2.07749209841175        1.05123568754579
H            4.24607589747648        0.82031987102231        0.02868262116759
H            2.95769220308081        1.92189786501716       -0.63547197143211
H            3.53440060385208       -1.72495185744884       -0.27009457169761
H           -1.58161486857997        3.03802062375996        0.04623392512548
H           -2.79639737449039        2.12645870820966       -0.89911469679665
H           -2.82946350933952        2.05279977937044        0.87197290726649
H           -1.22440172632902       -3.21218604677253        0.83424384511437
H           -1.24852161517109       -3.21788922927122       -0.95227451891869
H           -2.60924483086312       -2.52987646513227       -0.04152782799309
H            1.32872586474204       -2.97168873408914       -0.11810212306441
25
 energy: 6.785529441298 xtb: 6.6.1 (8d0f1dd)
C            3.24449951319161        1.24712163455714        0.16527081006986
N            2.33403063307738        0.10083823317470        0.09753049160375
C            2.61756096511463       -1.28049332043345        0.05942382167302
N            1.41377219361853       -1.96907776919444       -0.09544566226564
C            0.39843605132875       -1.09119802660701       -0.06580653410967
C            0.93778374884343        0.18823455288404        0.00819551419145
C            0.13434603626054        1.34226229055258       -0.02204928103278
O            0.50869118751703        2.51405764877661       -0.03218141688124
N           -1.25478490336644        1.01361248626742       -0.02755830714668
C           -2.17985046576254        2.13120703056902       -0.00124218747581
C           -1.81906839476652       -0.22293919826031       -0.03024186861206
O           -3.02132389800299       -0.39601361858472       -0.00704093854453
N           -0.94781212496921       -1.32835074078547       -0.07096716373668
C           -1.52597781684473       -2.65641114594459       -0.05787016287936
H            3.31459917949410        2.08235291511752        1.05222588154615
H            4.23677518871032        0.83275622124985        0.00841692124717
H            2.94583715863239        1.92337055477529       -0.62236569473313
H            3.53481970247105       -1.72842123733901       -0.26737525158530
H           -1.57936757626529        3.03808430942576        0.04459353883272
H           -2.79479775015631        2.12691101691901       -0.90045210725348
H           -2.82822999099808        2.05459503202293        0.87062510616939
H           -1.22627160172477       -3.21228470912568        0.83399582966338
H           -1.24889275440132       -3.21749906868525       -0.95259667565091
H           -2.60997551966863       -2.52930595452463       -0.04282199725859
H            1.32741590660350       -2.97438053463531       -0.11722876968365
25
 energy: 6.795437588823 xtb: 6.6.1 (8d0f1dd)
C            3.24285806421739        1.24816365112789        0.16519013730579
N            2.33344785652102        0.10032567507924        0.09745604514327
C            2.61714144105192       -1.28147035696456        0.06078988121553
N            1.41366741077551       -1.96979290384667       -0.09415093295258
C            0.39817665652200       -1.09195703690318       -0.06548771913956
C            0.93819050074652        0.18727454041026        0.00703190354402
C            0.13424837042038        1.34227477590750       -0.02196721536805
O            0.50865436793709        2.51301625104659       -0.03175361606700
N           -1.25442612535051        1.01384702770421       -0.02806133544812
C           -2.17917571541021        2.13144363795229       -0.00171574880600
C           -1.81911704680021       -0.22319098336317       -0.03080219921898
O           -3.02122563084993       -0.39629305533577       -0.00844362269406
N           -0.94777743195954       -1.32856258705086       -0.07063982262888
C           -1.52647120048964       -2.65660525579317       -0.05742082335190
H            3.31859735156703        2.08020789467978        1.05153349468390
H            4.24084256251718        0.83628904132698        0.00315800226794
H            2.93976797159947        1.92610126941727       -0.61521998584238
H            3.53429169719574       -1.72787591164334       -0.26895498944452
H           -1.57842877390843        3.03798801529707        0.04372506318743
H           -2.79432871509832        2.12704544623705       -0.90074024933072
H           -2.82734029450895        2.05541747674498        0.87037941905357
H           -1.22720451624997       -3.21232057650816        0.83457241777953
H           -1.24959967956238       -3.21770195227738       -0.95208662716195
H           -2.61047403593970       -2.52933681785095       -0.04262359434212
H            1.32789958299299       -2.97525866322192       -0.11673398623678
25
 energy: 6.556460466099 xtb: 6.6.1 (8d0f1dd)
C            3.24220046849284        1.24887546991680        0.16719318280838
N            2.33299573054324        0.09991194393000        0.10034341544226
C            2.61750026095896       -1.28264059917962        0.06694526479140
N            1.41367433808379       -1.97024938296494       -0.09264314346190
C            0.39827928062390       -1.09224705318307       -0.06544156803842
C            0.93888707247408        0.18667232359425        0.00670681848753
C            0.13424115564948        1.34224703243075       -0.02134692584094
O            0.50904179981389        2.51233789958022       -0.03030313026404
N           -1.25383180079996        1.01406854016888       -0.02830219833354
C           -2.17861631388589        2.13159319814084       -0.00176762175933
C           -1.81893126607202       -0.22324592545194       -0.03144802947051
O           -3.02099941950602       -0.39622635200584       -0.00973173697870
N           -0.94746820858516       -1.32842112403626       -0.07098902888956
C           -1.52652725461062       -2.65652296795771       -0.05776065346626
H            3.31841668005225        2.07939502117375        1.04969396102302
H            4.24117530878786        0.83806119616850       -0.00040072190970
H            2.93696562289017        1.92496285802402       -0.61634068605692
H            3.53332783832866       -1.72588792987946       -0.27350600481678
H           -1.57798597518002        3.03814588587540        0.04349034600299
H           -2.79406675563353        2.12713904090181       -0.90059187368015
H           -2.82661429690858        2.05583077358178        0.87049991938124
H           -1.22747589218355       -3.21217072040428        0.83427637251198
H           -1.24977121872112       -3.21759513564253       -0.95241421310265
H           -2.61055567360923       -2.52921979271198       -0.04304889498662
H            1.32835318693300       -2.97578559789738       -0.11607895324536
25
 energy: 6.512939751892 xtb: 6.6.1 (8d0f1dd)
C            3.24189462045475        1.24912921684642        0.16897471002000
N            2.33327914564834        0.09918706507992        0.10356945491789
C            2.61817817953324       -1.28402204468769        0.07413157786033
N            1.41378158564118       -1.97063546304194       -0.09181242521598
C            0.39845581408165       -1.09237997128387       -0.06626623866965
C            0.94002571655016        0.18598180217528        0.00655451106061
C            0.13473195655208        1.34184523971066       -0.02103733134394
O            0.50980009734938        2.51160946207988       -0.02994529636260
N           -1.25277385973681        1.01395623548072       -0.02864335797640
C           -2.17772346712214        2.13150137110233       -0.00174736379066
C           -1.81858783152346       -0.22337614469800       -0.03195925690162
O           -3.02064562023414       -0.39560991051790       -0.01007057229054
N           -0.94708676127520       -1.32824972697196       -0.07184861951620
C           -1.52669409263547       -2.65637817169412       -0.05819999783447
H            3.31686958976629        2.08099194105690        1.04968169173473
H            4.24125794341459        0.83955077615550       -0.00572239556980
H            2.93287175403871        1.92304904305138       -0.61630591163550
H            3.53120105833038       -1.72388700685259       -0.27830705632683
H           -1.57745773435766        3.03830313760718        0.04350878680262
H           -2.79347532633218        2.12717243607251       -0.90037512974586
H           -2.82562630242313        2.05573308193361        0.87061880093662
H           -1.22766445424847       -3.21184055223524        0.83391389335051
H           -1.25035115867903       -3.21769692220283       -0.95275856140329
H           -2.61069955026568       -2.52873529825142       -0.04329275046601
H            1.32865336540906       -2.97617099374274       -0.11562726548657
25
 energy: 6.439123602048 xtb: 6.6.1 (8d0f1dd)
C            3.24169926467310        1.24900741746116        0.16985239099138
N            2.33373453707380        0.09881258653908        0.10530448199593
C            2.61854858604177       -1.28416938089862        0.07815606177564
N            1.41397882403679       -1.97040721580915       -0.09188549296871
C            0.39845639065607       -1.09207022777180       -0.06699544726392
C            0.94055226404446        0.18586669271320        0.00732753711143
C            0.13504959601692        1.34165278259068       -0.02138178905912
O            0.51013534123396        2.51151612597066       -0.03138500273144
N           -1.25205992318616        1.01368492676892       -0.02898940482681
C           -2.17731945254838        2.13120573722523       -0.00195244390254
C           -1.81836516273688       -0.22357927709680       -0.03190141448348
O           -3.02037128396779       -0.39494759853460       -0.00903721807534
N           -0.94683302145027       -1.32820822017846       -0.07256709060522
C           -1.52669326413634       -2.65634837872171       -0.05838503446380
H            3.31654569287051        2.08057084128501        1.05060249402168
H            4.24037419332350        0.83989461833195       -0.00734113792915
H            2.93162133535360        1.92278673524258       -0.61544341148479
H            3.52902997290552       -1.72267307547881       -0.28293223188025
H           -1.57741138484644        3.03831075441790        0.04352739841566
H           -2.79294032529645        2.12693785496346       -0.90064550192929
H           -2.82530961800466        2.05495683642535        0.87030178971236
H           -1.22752224423103       -3.21154260517813        0.83384541912233
H           -1.25065404530632       -3.21801351190510       -0.95274864228008
H           -2.61061872285417       -2.52831628211890       -0.04319083087695
H            1.32858711827134       -2.97589953407111       -0.11510158223811
25
 energy: 6.368474942755 xtb: 6.6.1 (8d0f1dd)
C            3.24150503312178        1.24888649886208        0.17072873754261
N            2.33418882437632        0.09843966363377        0.10703619571705
C            2.61891675742707       -1.28431517646926        0.08216626572162
N            1.41417574125817       -1.97017935404304       -0.09195811285347
C            0.39845651536091       -1.09176162930507       -0.06772251739694
C            0.94107742468493        0.18575169475850        0.00809859552018
C            0.13536671390417        1.34146061345464       -0.02172430578379
O            0.51047005392882        2.51142287868262       -0.03281877687374
N           -1.25134787745881        1.01341395242498       -0.02933418187510
C           -2.17691618971642        2.13091075824829       -0.00215645302904
C           -1.81814351863444       -0.22378176323648       -0.03184423900927
O           -3.02009798500819       -0.39428690624007       -0.00800813490418
N           -0.94658045400053       -1.32816690593817       -0.07328348041548
C           -1.52669296872854       -2.65631880188258       -0.05856981655759
H            3.31622174645289        2.08015424828217        1.05152007078792
H            4.23948998856154        0.84023607452083       -0.00895681457890
H            2.93037532311290        1.92252427552854       -0.61458819414317
H            3.52686866845099       -1.72146474347189       -0.28753655711449
H           -1.57736480685966        3.03831831569160        0.04354603236464
H           -2.79240696895297        2.12670409545078       -0.90091428100109
H           -2.82499329677895        2.05418302173972        0.86998643561644
H           -1.22738120462785       -3.21124564659067        0.83377687043424
H           -1.25095677087221       -3.21832937025411       -0.95273914992230
H           -2.61053873015291       -2.52789845820157       -0.04308897061434
H            1.32852264908744       -2.97562873347362       -0.11458132148437
25
 energy: 6.421593752662 xtb: 6.6.1 (8d0f1dd)
C            3.24160325619685        1.24869123962750        0.17002171431704
N            2.33409070827776        0.09855690646324        0.10565189293566
C            2.61891466222509       -1.28426898895254        0.08002720433423
N            1.41404503885452       -1.97025363943087       -0.09216903986737
C            0.39853136617118       -1.09179129497415       -0.06740568288379
C            0.94072950356301        0.18594418553779        0.00786291699261
C            0.13519922119531        1.34158187956678       -0.02190091838160
O            0.51019363004199        2.51160821950579       -0.03285254637388
N           -1.25175262068643        1.01356380624655       -0.02920815364960
C           -2.17723782402362        2.13104166613242       -0.00212962139293
C           -1.81816336020742       -0.22370144322496       -0.03167874578497
O           -3.02016564289403       -0.39461642483350       -0.00795422894529
N           -0.94664947493596       -1.32820271537110       -0.07297175139835
C           -1.52657562386385       -2.65632139590554       -0.05844509920869
H            3.31677302521342        2.08002559132730        1.05177791620107
H            4.24003454541961        0.83995094493295       -0.00733218912405
H            2.93115562222668        1.92314809123010       -0.61432115833711
H            3.52722361204250       -1.72200910629684       -0.28647180904892
H           -1.57751005995213        3.03829230202254        0.04357481777650
H           -2.79264403558361        2.12678649455074       -0.90095403277985
H           -2.82534363619083        2.05434311165338        0.86997559032121
H           -1.22730667112262       -3.21135650234441        0.83387093926672
H           -1.25064447410595       -3.21820653612765       -0.95266683999883
H           -2.61044562751795       -2.52808502016120       -0.04309616291267
H            1.32815952759291       -2.97569276900229       -0.11417111590976
25
 energy: 6.468797172188 xtb: 6.6.1 (8d0f1dd)
C            3.24166353937887        1.24840182448713        0.16903142970656
N            2.33378424994995        0.09874224954561        0.10369461913918
C            2.61915393240281       -1.28443897915604        0.07816377139873
N            1.41378790625771       -1.97047122219993       -0.09194036894854
C            0.39872492201488       -1.09187891479768       -0.06635755186737
C            0.94020857120150        0.18620343263673        0.00769116282260
C            0.13484945333617        1.34184364617402       -0.02208820303003
O            0.50971383154922        2.51179612614654       -0.03272363464106
N           -1.25238206242173        1.01391457054980       -0.02904912531695
C           -2.17775772627944        2.13131758440028       -0.00223216548068
C           -1.81811887607017       -0.22357201113774       -0.03151151119391
O           -3.02019035119395       -0.39525108873096       -0.00824733586191
N           -0.94667036338870       -1.32822507793266       -0.07234600294136
C           -1.52630427971732       -2.65630075003731       -0.05827969629180
H            3.31799928704096        2.07945641582431        1.05224143668253
H            4.24072243441999        0.83937223398553       -0.00471458398980
H            2.93224492522160        1.92438217087526       -0.61380304855704
H            3.52755309982300       -1.72242149346918       -0.28797774455256
H           -1.57777676666456        3.03830270960994        0.04350813305654
H           -2.79298783172865        2.12696430432550       -0.90119589441583
H           -2.82598354901219        2.05470302399878        0.86976111459323
H           -1.22727355317297       -3.21153619418563        0.83401756643716
H           -1.24990300087801       -3.21792969184330       -0.95256922883133
H           -2.61023654178309       -2.52844750070972       -0.04333743364953
H            1.32739341765057       -2.97589876618729       -0.11270180811945
