72
 energy: 31.953683768576 xtb: 6.6.1 (8d0f1dd)
N            0.42487762150740        4.63879532892968        1.44215138866814
C           -0.00351815362830        3.63951829614879        1.04532121118383
C           -3.09582347028080        1.80243786316559        0.25301841987248
C           -3.78718262202607        0.58085300497448        0.19451571595697
C           -3.86772754781347       -0.16794823994566       -1.00314092947432
C           -4.50189561776942       -1.37894096687610       -1.04469455871333
O           -4.67607899920393       -2.10763175349586       -2.17454312990215
C           -4.15617937297999       -1.56521659123594       -3.34919520424656
C           -5.05309775682310       -1.93714646458178        0.12830488059376
O           -5.61547222143566       -3.16897983144057       -0.02269665757884
C           -6.18002605760955       -3.76258694973611        1.11546861868776
C           -4.98961386015972       -1.20637198251916        1.30887398262115
C           -4.38678730141778        0.02755183234457        1.34087561017014
C           -2.02907993390853        2.07466906702820       -0.76679132793755
C           -0.98595168720686        0.94126325534144       -0.87844971260914
C           -0.43142187707735        0.61711507854473        0.52112922952471
N            0.35363133509087       -0.58938700880115        0.71700187032614
C            1.79309010684416       -0.44970074001647        0.63570644849252
C            2.42349673526348       -0.29844021709972       -0.77303669586220
C            3.91427855268034       -0.13811759038852       -0.66569374031108
C            4.53079015613703        1.08800835396300       -0.83472651317084
C            5.90990379674057        1.22253510085194       -0.70348087106019
C            6.70529424114509        0.13244414921155       -0.39437538762272
O            8.06638448492353        0.14986835809727       -0.23570770874832
C            8.75481837326584        1.36480656188851       -0.40006139357933
C            6.08879942227702       -1.12916561121523       -0.21829966999350
O            6.94643457793247       -2.15028067518198        0.08401947512108
C            6.41933992106094       -3.43454553369193        0.29949411749788
C            4.71512496758133       -1.24205097319869       -0.36011919077500
C           -0.16526498548622       -1.81403712811229        0.14936034878306
C           -3.55201364953790        2.84836921282784        1.24723432004980
C           -2.73047743142635        2.88003014008534        2.54792967720025
C           -3.62200556619208        4.24791663745236        0.61908808293454
H           -3.47688610217661        0.27519778295201       -1.89994570043274
H           -4.61169920071359       -0.60720185130103       -3.63789815511516
H           -4.38092123449438       -2.32294279996718       -4.08565892219323
H           -3.07279293491170       -1.43800895088221       -3.28911173302164
H           -7.01502996455986       -3.17634623692697        1.52506149187552
H           -6.52661801606507       -4.73499430570606        0.76632852447176
H           -5.43193036506133       -3.90103136586677        1.90351477665847
H           -5.40793122671272       -1.58237380251704        2.23074458312239
H           -4.32312779098316        0.53512849979587        2.29245935306620
H           -2.49915455803826        2.25791720205409       -1.74518419436427
H           -1.48631315479059        2.97854101621515       -0.50420950357796
H           -1.43351228907774        0.04314710011012       -1.30788099538492
H           -0.19110306685087        1.26286330393489       -1.55390310129042
H           -1.30964822081157        0.58645606462979        1.18249445296914
H            0.17449385145610        1.44113492824161        0.89106210198859
H            2.24861018990565       -1.32325468258644        1.11862394084971
H            2.08283386277648        0.42999940563616        1.21553477242032
H            1.99829189825971        0.57311133898504       -1.27057264846960
H            2.18468901269965       -1.18201955132858       -1.36937434751522
H            3.93965637613812        1.95717570937359       -1.08424271457439
H            6.35595917408761        2.19485647090090       -0.84936864376495
H            8.41718204379105        2.12237836060979        0.31525119099002
H            8.64601258933999        1.75585072835294       -1.41788109343475
H            9.80711329765295        1.14520240699255       -0.21003844177780
H            7.27340120173228       -4.06660532565196        0.55101483698631
H            5.70248850416151       -3.44117910524389        1.12844730569143
H            5.93111847169678       -3.82680215555776       -0.59963383528633
H            4.23242990923795       -2.20098477348405       -0.24550971609835
H           -0.09304257819239       -1.88697278742452       -0.94779845381731
H           -1.21338630287730       -1.91133156351934        0.42514668650700
H            0.39353452404015       -2.65193923880276        0.56975678417907
H           -4.58091222043320        2.56706732493791        1.48597061778264
H           -1.70696664707656        3.14404515795509        2.29637065099668
H           -2.74385821105235        1.90404983702543        3.01967467737715
H           -3.09841472109719        3.59052504810531        3.29355607481101
H           -2.63559146567075        4.63903044984336        0.38935634297944
H           -4.19302256378536        4.22119313450952       -0.30770555323146
H           -4.10836604443933        4.93805830776868        1.30724173169187
H            0.77596513276634        5.50108355278894        1.78238680884500
