72
 energy: 26.218167348799 xtb: 6.6.1 (8d0f1dd)
N            0.49740220369327        4.87237663490893        1.49975751986381
C            0.16688602609828        3.82857327948498        1.12088861124093
C           -3.19225759596599        1.77890722660040        0.19965118288295
C           -3.88248002275158        0.55529234954963        0.13393770630200
C           -3.94256102792193       -0.20603628700373       -1.06473363208149
C           -4.54434287383056       -1.43840057624502       -1.10981172667601
O           -4.67914065636046       -2.21244875793597       -2.22834618156214
C           -4.25623904675594       -1.69576730576459       -3.46224907055051
C           -5.09167998810103       -2.00288726521776        0.06976206785682
O           -5.61059654930806       -3.25653814744611       -0.06368777209689
C           -6.17795327088047       -3.87213906429820        1.06190824021954
C           -5.07664628994435       -1.25419250657190        1.23868358660341
C           -4.51467083869476        0.00225116293767        1.26840640733858
C           -2.04715641858291        2.06186512093264       -0.71984625520769
C           -1.02054452702699        0.91826670201475       -0.80112288253445
C           -0.52191140303778        0.52650568561742        0.59709515720967
N            0.35387417829039       -0.61477934664748        0.68754404545580
C            1.77242963523560       -0.41062980128168        0.62262210921638
C            2.40326504362420       -0.26761437807297       -0.78428123504825
C            3.88888006528279       -0.11769719204488       -0.66902417185303
C            4.50243408403534        1.11066320980030       -0.82190871509568
C            5.87828479005519        1.24307621852789       -0.68457403378794
C            6.66104479013424        0.14620200267841       -0.37620862828054
O            8.01642309244781        0.15791921328873       -0.21481366830242
C            8.70317136537973        1.36834801365910       -0.39524097663151
C            6.04431634663365       -1.11388347087507       -0.20585694990249
O            6.89212459484982       -2.13704828417088        0.10175209178758
C            6.35656659727793       -3.41815900421334        0.30926560073626
C            4.67596725384664       -1.22749910453984       -0.35858232025074
C           -0.14247538468059       -1.84540002366363        0.13144169558234
C           -3.57265118406742        2.80966865912503        1.22548434577801
C           -2.62587076677941        2.81062341451631        2.43262289170186
C           -3.63655463287057        4.21752427090931        0.61903735181855
H           -3.56318009442304        0.23856756347095       -1.96990793238983
H           -4.77743187226329       -0.76523417119961       -3.71336732440657
H           -4.51030412618456       -2.45778400460184       -4.19816032502377
H           -3.17467140767903       -1.52162738407817       -3.48405460808847
H           -7.04193629440223       -3.31374484351952        1.43912020687268
H           -6.50555549278772       -4.85304685929419        0.72036978786677
H           -5.44776645714882       -3.99610649390518        1.86944956993576
H           -5.50298893698082       -1.65356569096164        2.14598139056382
H           -4.49767872312131        0.53627916069811        2.20449948022929
H           -2.41198961446077        2.26975364640241       -1.73298282168968
H           -1.52394662556934        2.95233913169576       -0.37387242029878
H           -1.46795195021723        0.04285539865293       -1.26959060483816
H           -0.18556698100825        1.24848744011494       -1.42161779337532
H           -1.40379287170817        0.29953859995922        1.20838237129419
H           -0.00750813248942        1.37620906069837        1.04655158253767
H            2.24844545755335       -1.26332569102854        1.12172363522300
H            2.00952441450653        0.48642601816833        1.20123345727893
H            1.97990418691180        0.60481543692976       -1.28162824505941
H            2.16100802317478       -1.15665729189644       -1.36940232666959
H            3.91120184013946        1.98297650028094       -1.05904106818146
H            6.32667851995631        2.21462701374917       -0.82227014674133
H            8.38355078808747        2.12924860115376        0.32543686429641
H            8.57901658550134        1.75789692470299       -1.41174303216690
H            9.75337080225244        1.13381907878712       -0.22667549707479
H            7.20707641938948       -4.05134856429533        0.55869743034645
H            5.64247479558456       -3.43028643933906        1.13994525846544
H            5.87079009557289       -3.80691441285435       -0.59243209530130
H            4.19453713407489       -2.18664336571486       -0.24433027107906
H           -0.08630285348501       -1.90882128134697       -0.96576877548333
H           -1.18581341494505       -1.96455826882330        0.42487458303064
H            0.43297278174060       -2.67475935479663        0.54697250363602
H           -4.58108771614140        2.57359317289808        1.58183543745859
H           -1.61291898373877        3.04969669909813        2.11554115366620
H           -2.61124790785724        1.83649014946185        2.91466888555377
H           -2.94959758035153        3.55433943341750        3.15810487265806
H           -2.64531288595957        4.59542573840215        0.38294420160939
H           -4.23352879077500        4.21527355151533       -0.28997583558496
H           -4.09645014585557        4.90024029381877        1.33024016819495
H            0.77853961875164        5.76787369202383        1.83316221921979
