72
 energy: 64.461398552594 xtb: 6.6.1 (8d0f1dd)
N            0.05910627437913        4.13267729032077        1.22607589184355
C           -0.56077366823336        3.15989668211906        1.13546143359088
C           -2.93424388211226        1.86696694297652        0.34524225631009
C           -3.60240689434506        0.60417367743848        0.39829771772427
C           -3.82995777504222       -0.05864142725400       -0.81450242949979
C           -4.52004200274168       -1.23615948159435       -0.85595906317328
O           -4.79543750200935       -1.87863844545716       -1.99695497159121
C           -4.22544810275484       -1.26418568693183       -3.09488914670961
C           -4.99759284596253       -1.83977394006505        0.31597397055415
O           -5.63633517418630       -3.02872460146542        0.11601444359511
C           -6.04024374323935       -3.73613666303676        1.25335605638821
C           -4.75261835791450       -1.21307520835668        1.52853127078919
C           -4.09398171121689        0.00134238530914        1.57908608805012
C           -1.99754918116742        2.09231265778893       -0.81224892265521
C           -0.99732430160618        0.92390560567764       -0.89921752437356
C           -0.22884282859964        0.72340349879216        0.40824659323348
N            0.49467381712049       -0.53367743632584        0.54373235573196
C            1.94622705782049       -0.49993286284150        0.50215874867519
C            2.57763236455056       -0.38555948581685       -0.89558572704265
C            4.06202551245396       -0.21353460417679       -0.76925360876545
C            4.67108123858423        1.01479870611143       -0.94583915350442
C            6.05015837929966        1.15664997013572       -0.80130499754830
C            6.85927156926253        0.07886905152499       -0.46591619252869
O            8.21876514941962        0.10933959733265       -0.26286962406300
C            8.90514043991031        1.33586847528460       -0.34749888984354
C            6.24980471404407       -1.19044542216518       -0.29638048540800
O            7.11979109709422       -2.20082019328969        0.03433484471393
C            6.60667693775466       -3.49008169938865        0.25668980338135
C            4.87145584886845       -1.30969743762258       -0.44877583583699
C           -0.04693054983086       -1.75809784558143        0.01384562960082
C           -3.61828364411111        2.95825067934908        1.12589314031287
C           -3.16607995820313        3.04864152824236        2.58309628836825
C           -3.55139724265206        4.34324794385355        0.48742660076670
H           -3.59254059817193        0.49467992932004       -1.69828148171760
H           -4.67583907914363       -0.28445583157704       -3.29708698315790
H           -4.46117943260648       -1.98137989694359       -3.84998937419921
H           -3.13898767866911       -1.14118560010418       -2.99156748902883
H           -6.73929049138748       -3.14966534654722        1.84516807789899
H           -6.51607688641797       -4.63975297888596        0.87706070977879
H           -5.21370971475130       -4.02856180361315        1.90116120827358
H           -5.02148379881564       -1.70112032187822        2.44993090287055
H           -3.93010020542765        0.40460652644282        2.57384053908494
H           -2.57738065927733        2.09708568258307       -1.75006753998850
H           -1.49893008137945        3.06203771988041       -0.78458798587373
H           -1.56522255917252        0.01747809767545       -1.06264895272387
H           -0.34261355464172        1.06413373375922       -1.75963356490923
H           -0.96093027537986        1.09159505740820        1.20388829368393
H            0.53124951678315        1.48646359675990        0.57036636968992
H            2.33331923539548       -1.42646179248303        0.95655648790593
H            2.33284770947966        0.33582517555684        1.08641743085707
H            2.15509737106427        0.45243689547321       -1.44430208542468
H            2.32980742418924       -1.29030368480812       -1.44661599226281
H            4.08029452527701        1.87719136312179       -1.22226595745832
H            6.48751016556550        2.13094386387072       -0.95987589174637
H            8.49814396950059        2.07486037093533        0.34637284213547
H            8.87817804360459        1.74054043875788       -1.36742572791662
H            9.94130075821814        1.14311908367130       -0.05846682528702
H            7.44647071765437       -4.12000096530062        0.55527137178116
H            5.86781013822791       -3.49236699612572        1.06414932736627
H            6.15289772085640       -3.89630105865114       -0.65300109737099
H            4.38497632211596       -2.26818663937392       -0.32952175802013
H            0.02553746919420       -1.87358278252429       -1.08209015140974
H           -1.08898716406938       -1.84523240334872        0.30604315841365
H            0.50028158485761       -2.58536781125512        0.48150567739432
H           -4.67329512335176        2.64360378321380        1.11642263042963
H           -2.12615685364781        3.35797223747803        2.62197277054392
H           -3.30543634938368        2.08749211143276        3.05201154194062
H           -3.73248507282803        3.76435723815471        3.16124464309712
H           -2.52361171409112        4.70818890985309        0.49222781959483
H           -3.93489658159025        4.33366697020450       -0.53546732939066
H           -4.15146798190019        5.02167603601061        1.09454951011725
H            0.56186182747575        4.88718545286856        1.59622852654827
