72
 energy: 56.375568328438 xtb: 6.6.1 (8d0f1dd)
N            0.15570554193243        4.21158991520857        1.26532986107510
C           -0.43833279265805        3.23333137980933        1.09746298037710
C           -2.95543854229032        1.85727509883632        0.32282629885442
C           -3.62899326966118        0.60030764761871        0.35820282558827
C           -3.82655549749098       -0.08241246963812       -0.85062078297575
C           -4.51136986886558       -1.26450278911549       -0.88690493720022
O           -4.76208229601057       -1.92275516145798       -2.03067562118605
C           -4.16738766690961       -1.32080424663277       -3.12860739745431
C           -5.01163201062390       -1.85295624411543        0.28687478240461
O           -5.64727279081233       -3.04585490772519        0.09303372063430
C           -6.09538369829995       -3.72542189244743        1.23289275504114
C           -4.79998903569877       -1.20828450711111        1.50057124818201
C           -4.13543756893505        0.00344051665469        1.53413029404321
C           -1.99539719548661        2.09903429935056       -0.82058729516189
C           -0.98468506872123        0.93539122142534       -0.91165772443515
C           -0.26696650481796        0.70300805820445        0.42684982411559
N            0.46103075549510       -0.54036801715766        0.58340838849693
C            1.91488782094749       -0.49247502435483        0.53610010515512
C            2.54824740097073       -0.36940884002411       -0.86389272586196
C            4.03592726843769       -0.19909327068439       -0.74413281882406
C            4.64536109241797        1.02948346657546       -0.92177823863612
C            6.02465095286007        1.16998314701897       -0.78356948307900
C            6.83624410476537        0.09179639545388       -0.45645252598338
O            8.20096623479129        0.12322263218172       -0.27326953401108
C            8.88832783389887        1.34888097366319       -0.36954255801713
C            6.22684198477893       -1.17794477000510       -0.28594677119297
O            7.10523352007182       -2.18803330910106        0.02832863486394
C            6.60057208681324       -3.48057649330894        0.25024076458087
C            4.84717809799580       -1.29618602401734       -0.42978443243662
C           -0.07661244976227       -1.75994132430911        0.04416422694430
C           -3.59743224592191        2.94081221660622        1.15632731345214
C           -3.07033458701625        3.01992999360500        2.59251017086188
C           -3.56526702128847        4.32745817638937        0.51380428699511
H           -3.56542273372736        0.45395734540408       -1.73918579459774
H           -4.61176592743208       -0.34509003034508       -3.36808992675638
H           -4.37448894717772       -2.04912200561577       -3.88481678640463
H           -3.08492413778624       -1.19992330921481       -2.99389163287500
H           -6.82093681921291       -3.13322684613086        1.78978890955113
H           -6.55670536514579       -4.63424707937000        0.85225575429770
H           -5.29194950984457       -4.00502845993233        1.91740612016897
H           -5.10614931735219       -1.66656304179537        2.43018975287014
H           -3.97930762076048        0.41763540995847        2.52323317809187
H           -2.56193512459932        2.15718304742937       -1.76376987902661
H           -1.45758233117683        3.04522154621332       -0.74453495067175
H           -1.54125148119768        0.02913482801973       -1.12466528660754
H           -0.29101128233930        1.10284024743186       -1.73880419806442
H           -1.04073901925806        1.00936841560453        1.17958819397790
H            0.48009392298586        1.46135103231698        0.61397256524446
H            2.30278469195180       -1.41752558547444        0.99160670282174
H            2.29091732862917        0.34444236142830        1.12858176743241
H            2.12515255831333        0.47478923967221       -1.40314533047372
H            2.30244440535209       -1.26922488645347       -1.42572130057993
H            4.05377405382590        1.89299925411316       -1.19254397177420
H            6.46011109439007        2.14488326744798       -0.94147438854866
H            8.49293849888168        2.08878338321566        0.33175596592300
H            8.84799233111186        1.75417988968348       -1.38837741620069
H            9.92955960740472        1.15239177357532       -0.10020684590648
H            7.44903492148649       -4.10914452695446        0.52880143168173
H            5.87058597983938       -3.49030732638894        1.06648080589914
H            6.12770099439079       -3.88240487647093       -0.65184031067431
H            4.35923494111575       -2.25426244300951       -0.31270913773474
H           -0.00742497787509       -1.86487773157196       -1.05322748980534
H           -1.11735467052119       -1.85186627946323        0.34020128311646
H            0.48004736054481       -2.57741128733226        0.51061528389289
H           -4.65081105180870        2.62690740255759        1.19578990097234
H           -2.02542937179485        3.32065972123733        2.58563335614872
H           -3.18812518897733        2.05398700739868        3.06057141950201
H           -3.60767950590447        3.73239350189819        3.20655327101074
H           -2.54086041863313        4.69864198462111        0.46293479142572
H           -3.99112974837803        4.31176710797178       -0.49169792043432
H           -4.14579435574409        5.00726620394853        1.13849212491437
H            0.62413248630700        4.99887168450181        1.61953874806566
