72
 energy: 72.259786212942 xtb: 6.6.1 (8d0f1dd)
N           -0.05338126134271        4.06467100726612        1.21800497922880
C           -0.68750731268902        3.09738027737943        1.20604240627530
C           -2.91451762785439        1.87629887617099        0.36411951767849
C           -3.58031186117786        0.60840573396505        0.42597965560867
C           -3.84124761811244       -0.03425997744169       -0.78780952077855
C           -4.53312444520144       -1.21055759167506       -0.83052374144277
O           -4.83481544455954       -1.84400292656464       -1.96521444200663
C           -4.30162708510547       -1.21073468838653       -3.06424103846577
C           -4.98015839093033       -1.83033804063509        0.34274290985542
O           -5.61237507764942       -3.02126514612570        0.13853800545537
C           -5.97477097898094       -3.75137494732087        1.27296061983459
C           -4.70166404879862       -1.22070920329066        1.55198205236560
C           -4.05823097677334        0.00050726825693        1.60787311056564
C           -1.99023969766841        2.08659085666785       -0.79954522357926
C           -1.01048597836491        0.90473930418756       -0.90082368897797
C           -0.19340768751492        0.74372287917187        0.38565827661273
N            0.52626002014589       -0.52323554557903        0.49818068292245
C            1.97562729376213       -0.50423662401051        0.46562749192724
C            2.60726458170663       -0.39940008978106       -0.92732207812616
C            4.08861063803377       -0.22716248675453       -0.79542397119968
C            4.69824505981483        1.00132605089522       -0.97051737605326
C            6.07675401579246        1.14296299947724       -0.81832092030116
C            6.88215525355137        0.06476990976962       -0.47242999982947
O            8.23482863966098        0.09364819479199       -0.24225082244447
C            8.92086713388137        1.32015299502425       -0.31972129700732
C            6.27135658614561       -1.20336592306727       -0.30321349367478
O            7.12839657338141       -2.21484286447339        0.05222285330420
C            6.60233839052014       -3.49847096575260        0.27639554951802
C            4.89430074310927       -1.32316947918263       -0.46779922328355
C           -0.02144112439624       -1.75558230862433       -0.01543363729541
C           -3.63769026570373        2.97377756250839        1.09676509302205
C           -3.26324928087411        3.07393998802431        2.57219665879574
C           -3.53402887487265        4.35700969391775        0.46431260007367
H           -3.62074245252937        0.53633996512973       -1.66413115744908
H           -4.75714873559296       -0.22657934752881       -3.22283860654561
H           -4.57047427654542       -1.91263331950891       -3.82023429423274
H           -3.21223417779821       -1.08294236677919       -2.99656487381104
H           -6.64675195087614       -3.16992184250862        1.89758243862383
H           -6.46343234576425       -4.65081077934640        0.90328616660148
H           -5.12432071573454       -4.05241835533938        1.88277129371978
H           -4.92636033839074       -1.73536476854084        2.46658470900505
H           -3.86625227237144        0.39737745643097        2.59491774707154
H           -2.57622136982370        2.08187401327422       -1.72897116447551
H           -1.48131088070005        3.04731254935816       -0.75719214826852
H           -1.59777578121347        0.00199054445671       -1.04070476007849
H           -0.37969510854558        1.02065858399867       -1.79243001040156
H           -0.86431532345055        1.14902032976490        1.24478153026070
H            0.57072921802108        1.50783175930835        0.50995820802308
H            2.36376122402632       -1.42927282968384        0.92319706358401
H            2.36763351031593        0.33402876827336        1.03925027057752
H            2.18606310246794        0.43242306297143       -1.48671688728375
H            2.35738480398733       -1.30790207638181       -1.47053999538101
H            4.10755162087064        1.86223872148030       -1.25217357996158
H            6.51635845796817        2.11678584558547       -0.97701509974827
H            8.50303814617393        2.06034233455214        0.36511903163579
H            8.90600007235216        1.72161482430310       -1.34147003054907
H            9.95177556700832        1.13008939097836       -0.01256375086142
H            7.43335618143287       -4.13100618566589        0.59277525122790
H            5.85482050897490       -3.49106947037127        1.07572009062275
H            6.15512653773220       -3.90768824659743       -0.63635565896546
H            4.40867893038966       -2.28194748324366       -0.34490679909258
H            0.05516211162883       -1.89116114945346       -1.10852187328077
H           -1.06534342920126       -1.83733163055461        0.27073314137494
H            0.51489020341362       -2.58406777726159        0.45900976164215
H           -4.68960256990725        2.65807502847029        1.03689815626579
H           -2.23085337360109        3.39345599447644        2.66628413020442
H           -3.42543036408751        2.11606039078098        3.03779323324460
H           -3.85998081680331        3.79202069912005        3.11195576715773
H           -2.50447035135411        4.71292030902124        0.52243458946867
H           -3.87238484612505        4.35309826967518       -0.57287568950066
H           -4.15346478334062        5.03630831533873        1.05056919423487
H            0.50064515392509        4.77735035902355        1.59367742088771
