72
 energy: 30.347671384218 xtb: 6.6.1 (8d0f1dd)
N           -0.74338550646391        3.44376333238942        1.31865425534006
C           -1.29784208622335        2.29930138486184        1.43088317534006
C           -2.61115710374118        1.99616884058222        0.55875741486802
C           -3.41250326202807        0.66550953426770        0.52452410735825
C           -3.92535456694044        0.13788415187134       -0.67128690429042
C           -4.59572484581919       -1.06798095260811       -0.70280663167977
O           -5.12300186972343       -1.68039014056107       -1.76980168794216
C           -4.89329361391284       -0.94459255502178       -2.89653831874557
C           -4.81338923185474       -1.82546827508623        0.43927029176651
O           -5.41588657163993       -3.02721124658976        0.22096530527070
C           -5.54113217853408       -3.85161152192813        1.33629515766383
C           -4.32503022363599       -1.29995273475055        1.60013995299875
C           -3.71957957639249       -0.05389848521488        1.64677364257572
C           -1.90443522502636        2.14814713572861       -0.76790586791333
C           -1.08818559069422        0.88819846050269       -1.02228269979789
C            0.00658589217958        0.73066894901698       -0.01581178425431
N            0.61818826172896       -0.47962910444410        0.20662671945169
C            2.05160472410816       -0.47322254665100        0.27443873239811
C            2.72882451820901       -0.47583721970964       -1.08604253756717
C            4.20026165625466       -0.29509765442494       -0.89603494220097
C            4.82649587236197        0.92735668498769       -1.05230102324395
C            6.19431001082293        1.05672829928388       -0.80871779205078
C            6.94618538978084       -0.01873467259674       -0.35026222657687
O            8.26801544199341       -0.00455397324985       -0.00146434663199
C            8.98188863893684        1.20360042868948       -0.11127712495852
C            6.31294429864208       -1.27174271285269       -0.18602325423579
O            7.10598645569616       -2.27506610028155        0.30720598284192
C            6.53050378242389       -3.53760481999030        0.52152474907945
C            4.97111548073298       -1.38885919761803       -0.49796867304688
C            0.00327862720108       -1.71336995296359       -0.20155822771851
C           -3.70339694592154        3.04161180693470        0.93888224383218
C           -3.75020004848055        3.16469450689178        2.45747589596307
C           -3.45806689063025        4.42519540889307        0.36711107433914
H           -3.84268366132170        0.73592485816651       -1.55077370802543
H           -5.35453487500498        0.03904374818070       -2.79191641237373
H           -5.37471046890279       -1.56255849677114       -3.61795691103561
H           -3.82213081527132       -0.77720424784627       -3.05901402738939
H           -6.06504985763752       -3.31161707585639        2.11512899201606
H           -6.06856724922462       -4.75110570837710        1.03114316385052
H           -4.57053984988596       -4.15288652957967        1.72829933244709
H           -4.31095547058777       -1.90793012054342        2.46797555710465
H           -3.33275551450455        0.31183035368448        2.57006549618452
H           -2.55005567445805        2.30812396601917       -1.61469869149285
H           -1.23370463973487        2.97888277369827       -0.58194589987021
H           -1.72090489740370        0.00166517535410       -0.95963295234385
H           -0.68808401540156        0.94287076302888       -2.03526628368456
H           -1.12673546461755        1.43235940129281        2.10900899489203
H            0.67758315899632        1.55753553003952        0.12620895125263
H            2.38643265311790       -1.32961334543711        0.85915451048650
H            2.37849923917547        0.44614597080637        0.74251785351655
H            2.33934005354862        0.32261862988258       -1.70943779555013
H            2.47885131069174       -1.40890978391957       -1.57831372101996
H            4.25988846539108        1.78352824336080       -1.38295153876010
H            6.66432874085173        2.01826031367648       -0.95581853424360
H            8.53722738577400        1.98454646815469        0.50336800314421
H            9.01362920723679        1.55378397893621       -1.15430744235575
H            9.99112689595843        1.02078669943011        0.25947202826175
H            7.30973684008675       -4.17762236209203        0.93697320251739
H            5.71567861997416       -3.48841850775331        1.24904628193838
H            6.13932718204319       -3.96237249374914       -0.41281626322269
H            4.48694802743645       -2.34614239042344       -0.40060787227009
H            0.02805419942505       -1.89173483135929       -1.28314170341083
H           -1.03262926440500       -1.71997898436507        0.13024264839171
H            0.53765892540079       -2.52451594292885        0.28366384194683
H           -4.68397569987911        2.67412118600443        0.59918342185382
H           -2.79046407282918        3.51467611444766        2.81844382728280
H           -4.04003219034273        2.22095986741654        2.89868859738762
H           -4.45187308418434        3.90330644382495        2.80060177221703
H           -2.47062661172449        4.73028419652356        0.71199212886535
H           -3.56020327300949        4.45477266680116       -0.72010103791190
H           -4.16988624907840        5.10304441284899        0.83595005771382
H           -0.00005048392493        3.79781640199763        1.92805833930667
