72
 energy: 24.129035012482 xtb: 6.6.1 (8d0f1dd)
N           -0.80872024843616        3.38663837659807        1.40475391546848
C           -1.36391450353733        2.23827955737185        1.46774648308778
C           -2.63464698671061        1.98864446217794        0.56055918037211
C           -3.42467541672668        0.67023240653636        0.52176349917872
C           -3.96174612071146        0.15394214061791       -0.66409958866679
C           -4.61728125347984       -1.06014715338350       -0.68747202496338
O           -5.19728003418721       -1.66242640098773       -1.73445252737619
C           -5.04271232323366       -0.89960049200016       -2.85548152240613
C           -4.77110140238002       -1.83840969774327        0.44889564040376
O           -5.37427189982657       -3.04067518515644        0.23689494584059
C           -5.44453118303077       -3.87793651576403        1.34636691787965
C           -4.23581466629439       -1.32939269961996        1.59568869341962
C           -3.65140920634295       -0.07604089965088        1.63880987622344
C           -1.91561053023485        2.16256304362073       -0.76508445818357
C           -1.11063212860929        0.90927159961036       -1.07502559162464
C            0.00439841040774        0.75444119170951       -0.09429386435218
N            0.61853326434189       -0.44998851847378        0.14132670947071
C            2.04923749939995       -0.44272307225044        0.22890590689062
C            2.75007206640416       -0.48718504645801       -1.11735830123651
C            4.21935316232948       -0.30959859894379       -0.90550023313616
C            4.85484932960751        0.90849456926248       -1.05564745849196
C            6.21819684327240        1.03469349213760       -0.78869878056839
C            6.95511944822270       -0.03970087629149       -0.30589641774098
O            8.27140581258247       -0.02791955414376        0.06195486118502
C            8.99173231575298        1.17511171672417       -0.06204563354574
C            6.31169487379781       -1.28637985317362       -0.13860696704167
O            7.09268215198843       -2.28666260821603        0.37938426363438
C            6.50921219531340       -3.54544568344186        0.58958450220391
C            4.97632355717073       -1.40211458740241       -0.47929222798597
C           -0.00168951530021       -1.68645567374516       -0.24441467702394
C           -3.72890109113542        3.05120594094717        0.90787758285803
C           -3.84412631893043        3.17756894815309        2.42264495698559
C           -3.44336155440542        4.43578450049973        0.35424811721685
H           -3.91069618042462        0.76628009914908       -1.53604559227425
H           -5.49867607941545        0.07942654456964       -2.69561860309621
H           -5.56639635446699       -1.49776424503753       -3.56533724680083
H           -3.98422173255275       -0.71746628858805       -3.07230501551023
H           -5.93601720461771       -3.34741501679435        2.15235434473341
H           -5.97601543565515       -4.77952112559775        1.05741075506910
H           -4.45238393405119       -4.17167938712933        1.68975502476553
H           -4.17091040448083       -1.94961950087001        2.45033956967356
H           -3.21030074387363        0.28825897251432        2.53632442903434
H           -2.55276321202943        2.37309545927127       -1.59919437795191
H           -1.23282821968165        2.97965453255921       -0.55951448782456
H           -1.73690214894477        0.01899245928797       -1.01134799898891
H           -0.73572443221350        0.98018045200330       -2.09722410156433
H           -1.24807904829251        1.37232828719933        2.17096614918968
H            0.67313009733570        1.58936348843074        0.01295915003492
H            2.37282426175437       -1.27800401461312        0.84854894936992
H            2.36866591057215        0.49173691981192        0.67071503160954
H            2.37468703804437        0.30017992892678       -1.76148173384190
H            2.50116596384365       -1.42751003610278       -1.59536970572313
H            4.29922702338339        1.76398607052137       -1.40324487019901
H            6.69599965304854        1.99229079907766       -0.93765306509472
H            8.54528721248093        1.96761286014170        0.53628313750715
H            9.03064615205730        1.51112371787136       -1.11015598751950
H            9.99751177466840        0.99292391360211        0.31731865528411
H            7.27791081473252       -4.18576646709790        1.02360961604047
H            5.67973572822008       -3.48889412526579        1.29965426129948
H            6.13128418662856       -3.97306830056376       -0.34918352693496
H            4.48452210960246       -2.35506628670669       -0.38164804262165
H            0.00449607490402       -1.87506599188301       -1.32486364268237
H           -1.03243503930683       -1.68299804590346        0.10389714450448
H            0.53888897798533       -2.49272851719629        0.24146815708184
H           -4.69500735401540        2.69190415493234        0.52320691263800
H           -2.90285749212561        3.53397921569915        2.82193824030804
H           -4.15214474177857        2.23406146003965        2.85331198695721
H           -4.56042965737276        3.91724107231705        2.73726209531827
H           -2.47368064500236        4.72700327708694        0.75752696150688
H           -3.49292247793192        4.47437407976016       -0.73627189165509
H           -4.16788339379311        5.11853362630441        0.79555542521158
H           -0.05902884540111        3.69692207455216        2.02848904605976
