72
 energy: 43.764516886855 xtb: 6.6.1 (8d0f1dd)
N            0.29038395280689        4.43221053137446        1.34513268638301
C           -0.22982022745517        3.43956924163349        1.05931919036814
C           -3.01605749276170        1.83071173014431        0.27954230905023
C           -3.69931442853818        0.59315524034319        0.27384865103956
C           -3.83602829453788       -0.12770966020732       -0.92652674065900
C           -4.50609420616405       -1.31810474131918       -0.96281036963443
O           -4.73505829438407       -1.99075791665753       -2.11075745609868
C           -4.11086626326115       -1.42594406557338       -3.21726966985484
C           -5.02981300053039       -1.89149293780754        0.21400819787114
O           -5.63649513441271       -3.10025038626528        0.04756503575835
C           -6.17084293376178       -3.71689577125879        1.19109426183234
C           -4.88708646626356       -1.20356417571641        1.41555848241808
C           -4.25084226087036        0.01883644598772        1.43714616641991
C           -2.00888873109314        2.09863693819682       -0.81885158831384
C           -0.97186296816656        0.95175575939004       -0.90948082310615
C           -0.36316743311152        0.68907594558568        0.49488025940146
N            0.39223760714016       -0.55238296625767        0.66118212260209
C            1.84408647564659       -0.46476602444470        0.58806299922039
C            2.48364185608404       -0.33194657799316       -0.81472764189920
C            3.97434732644652       -0.16787612112598       -0.70032464780385
C            4.58858100988159        1.05889180575846       -0.87589651702559
C            5.96830267849153        1.19760892164656       -0.74221417722372
C            6.77401394586358        0.11451983126172       -0.42742913122676
O            8.13913595467025        0.14287710141100       -0.26193150142627
C            8.83105968163298        1.36335736575183       -0.39274774110756
C            6.15951736135483       -1.15185356994539       -0.25367036737934
O            7.02572621222870       -2.16987905266144        0.04705014930619
C            6.51507121993758       -3.45953634906190        0.26756070003853
C            4.78230629479154       -1.26768333754457       -0.39315995136401
C           -0.12875994054281       -1.77558349146063        0.09961356612749
C           -3.56326709540595        2.89739348471224        1.20785197726370
C           -2.89158567374943        2.94860676220216        2.58793424912073
C           -3.59114449651875        4.28994866210875        0.56736578912754
H           -3.52148662448167        0.36605572843704       -1.82221391754903
H           -4.53779300674787       -0.45577271084090       -3.51264763962185
H           -4.28382214124240       -2.17416303306715       -3.96832748642474
H           -3.03601950603327       -1.31735411932008       -3.04960669291014
H           -6.94679316084323       -3.11567805529527        1.67191869170695
H           -6.59278596726680       -4.64205373866813        0.80782411575494
H           -5.40744864900178       -3.95553897806437        1.93919878916288
H           -5.25051762926765       -1.60613500825764        2.35656009040243
H           -4.14664754869915        0.48163036027398        2.40903922045257
H           -2.53144620720167        2.23996465508692       -1.78701214497901
H           -1.43943350697135        3.01377809470836       -0.62676660643397
H           -1.47470987414878        0.04126002695200       -1.22712063497163
H           -0.20907328022313        1.19988158303794       -1.65913408866867
H           -1.21137633709791        0.84486898346831        1.20750864276355
H            0.35223896191432        1.45961612864375        0.75144299160152
H            2.25682059769682       -1.37281846989427        1.05250529238101
H            2.18946951798242        0.38841572504428        1.17647433038911
H            2.06648845393810        0.52782839357003       -1.33342087992778
H            2.24189044312278       -1.22390730410611       -1.39382047334068
H            3.99545175378587        1.92326977995484       -1.13725619669041
H            6.40931052331472        2.17135791529904       -0.89571211299624
H            8.46957687585671        2.11332752213689        0.31907872597636
H            8.75138150397471        1.76327034663740       -1.41086425449806
H            9.88204067269609        1.15624992023936       -0.16997354789768
H            7.37817074813907       -4.08164013567480        0.52560939119263
H            5.79084394368465       -3.47214545262457        1.09069836816954
H            6.03119427946686       -3.85779417008212       -0.63092423351240
H            4.29720299404381       -2.22669316555055       -0.27928275447067
H           -0.04817311253482       -1.89000733876716       -0.99798614651905
H           -1.17522304126081       -1.86172167961120        0.37809949717474
H            0.43195130253977       -2.59633164931593        0.54967784179752
H           -4.60810570715615        2.59338410474466        1.34271731538201
H           -1.84665538454832        3.22081727968051        2.46960817512063
H           -2.96504806660762        1.97894529244667        3.06120627770572
H           -3.35193273444977        3.66375394046241        3.26344008270495
H           -2.58275960708096        4.67297430523533        0.41693984199953
H           -4.09538255513525        4.26597696571937       -0.40047788153753
H           -4.12797226913024        4.97412143224761        1.22512364419228
H            0.70185146674788        5.25616135890717        1.69825814599873
