72
 energy: -1.627453066098 xtb: 6.6.1 (8d0f1dd)
N           -1.42089877663948        3.19424281536645        2.14068549136260
C           -1.62238004697198        2.17578233551918        1.42609376915207
C           -2.75409741276787        2.05104204822760        0.40554654369903
C           -3.38936447489335        0.67454777848600        0.41054629602436
C           -4.25415356509606        0.24294616755339       -0.59397787043538
C           -4.80271202110354       -1.02490950927899       -0.57297369845578
O           -5.69298703640827       -1.54108173798676       -1.46340725272010
C           -6.07096845746157       -0.66651632821183       -2.46877643715335
C           -4.48132061375161       -1.92089918985580        0.44960826764541
O           -5.08488786637673       -3.14053342574505        0.35596500878214
C           -4.82382745973319       -4.04439658785243        1.38825416591529
C           -3.60739677010396       -1.49526341328850        1.42031412831237
C           -3.07861311259862       -0.21693231499757        1.40026656956986
C           -2.12934633239452        2.26118939309468       -1.01652658525075
C           -1.23693854667110        1.13319486493620       -1.56633592669572
C            0.02754470156313        1.04326133008439       -0.79812835960213
N            0.62287948449854       -0.14026619842024       -0.40245757931128
C            2.01696972188241       -0.14509164868427       -0.08688381826859
C            2.91194465024927       -0.54971953017492       -1.26405666114570
C            4.34915670453589       -0.41903089702389       -0.87183613171774
C            5.04948703161183        0.75902542020676       -1.04848687041961
C            6.36753988393950        0.87872413576206       -0.62813636142819
C            7.00027339256161       -0.17718383282422        0.00667592353096
O            8.28518375466788       -0.17475969550189        0.46458133023887
C            9.05173084658729        0.98422374139710        0.25081095517703
C            6.28916047431175       -1.37731941213392        0.21616908249555
O            6.99086696542152       -2.36111250177085        0.85504753399931
C            6.35864201061997       -3.59603597076508        1.05186413358616
C            4.98708401072584       -1.48421361479787       -0.23896772167971
C           -0.04289930290380       -1.40528318714922       -0.54225108120260
C           -3.86955756940265        3.09923191446353        0.65565421822242
C           -4.38952184367442        2.98567314010340        2.07797733927915
C           -3.39497054668355        4.52581417320720        0.46493344569297
H           -4.47281517719727        0.91831316756073       -1.39573691610979
H           -6.50035484415517        0.24380967613842       -2.03631153125371
H           -6.81012140868410       -1.20535496075944       -3.04777677880126
H           -5.21258549357398       -0.35941788888611       -3.07353208568071
H           -5.10629901856905       -3.60654363225523        2.34470255185749
H           -5.39742660777208       -4.94419800045330        1.18911010811996
H           -3.75887387635172       -4.30958395579192        1.42686639236834
H           -3.29060847471254       -2.15740047144626        2.19369999444890
H           -2.36276619854314        0.09550656485351        2.13447310222496
H           -2.92926341636684        2.41303427160586       -1.73300169869913
H           -1.52568969067267        3.16115589808804       -0.97259053705165
H           -1.78032894863817        0.19163412669017       -1.53723884351469
H           -1.01982268682671        1.35190146195374       -2.62766341060885
H           -0.86484306452224        1.42271762040412        1.24036042244439
H            0.66661235575282        1.91200257595172       -0.83324099716441
H            2.19731706656545       -0.81301826132585        0.76153529386946
H            2.30941044734294        0.86181385799037        0.19742393766611
H            2.66554456852034        0.11018516443997       -2.08903431271909
H            2.66510061172245       -1.56856340394779       -1.55296208701428
H            4.57352531966185        1.59987337547502       -1.52433216851480
H            6.89047970976736        1.80738922626275       -0.80435226648402
H            8.61573924273994        1.84963971584651        0.75574151302355
H            9.14197951999497        1.22122233548585       -0.82030778641425
H           10.03430546339731        0.78166539188041        0.67232676636168
H            7.08077237758853       -4.23117308276809        1.56399751228107
H            5.46599910189640       -3.49775030257503        1.67817666731548
H            6.05476835705665       -4.05076776834733        0.09993013700923
H            4.43445296892451       -2.39733388933651       -0.10004832149916
H           -0.18310795017427       -1.70295283264556       -1.59126284114052
H           -1.02302803788643       -1.35275800534177       -0.06147456627150
H            0.54968696409387       -2.16963321127428       -0.04201639151941
H           -4.68903647249354        2.89188087269485       -0.04548992378425
H           -3.56404989698390        3.16570986736806        2.75762046947147
H           -4.74122756295841        1.97310595891583        2.23923583164030
H           -5.16480149539202        3.72759754994157        2.28007357047556
H           -2.57770016888544        4.70432193063191        1.15812669370579
H           -3.10037660398941        4.70518904476290       -0.55884566958062
H           -4.19755557930129        5.21073037705385        0.70118264710935
H           -0.55827501159348        3.23313987156815        2.68080250343512
