72
 energy: -99.406548937155 gnorm: 0.004355892794 xtb: 6.6.1 (8d0f1dd)
N           -1.85788951272394        2.80971897645094        2.19713638569119
C           -1.82885444505499        2.11893400479694        1.15774677731331
C           -2.99053114924532        1.91692654970042        0.22487713186980
C           -3.47479171315051        0.47630183588190        0.30857697450512
C           -4.43132944620359        0.00932274003761       -0.59562918589181
C           -4.90532194142515       -1.29096948459399       -0.53938363348991
O           -5.83412580853277       -1.82196372529812       -1.36067674995764
C           -6.47720083849024       -1.00099732205291       -2.30704841772066
C           -4.39918861375274       -2.17877273968484        0.44863061918113
O           -4.90632446977055       -3.42744587041521        0.42191210464248
C           -4.51248497411646       -4.34570092601816        1.41458893657504
C           -3.45289674154706       -1.70793832146416        1.34418344656766
C           -3.00091103002890       -0.39595529588848        1.27587464826122
C           -2.44075961668855        2.19290313239693       -1.19913282740813
C           -1.49383367807996        1.10021540265731       -1.73121291141803
C           -0.16330489708016        1.09533807967454       -1.08026674262599
N            0.49787600522776        0.01407406412416       -0.68103218825901
C            1.87601014515153        0.11310475720753       -0.26031788608437
C            2.84725056097798       -0.33833198585263       -1.36798035403412
C            4.26710475902527       -0.13467293883034       -0.91811953539287
C            4.90785433150285        1.07469202041125       -1.13335775658917
C            6.20865759564641        1.27663648429287       -0.69894267407455
C            6.89535469027088        0.27102415454562       -0.03384482108021
O            8.15681714203577        0.35392771856376        0.42747836933472
C            8.88860659063244        1.54016145185880        0.21974840515350
C            6.24426428451834       -0.97260897366804        0.19652862304922
O            6.98327079640735       -1.89409591764942        0.84567127771428
C            6.43713705982142       -3.16771721298574        1.09207352487440
C            4.94262988904456       -1.15024421412081       -0.24554265103015
C           -0.09925729498776       -1.29965308399303       -0.69683526989592
C           -4.19246570145626        2.85761273838461        0.53651425512816
C           -4.82889680296862        2.50832665940496        1.87922169864155
C           -3.82165797044483        4.33833389715863        0.51669277809173
H           -4.82389620723730        0.67648151807828       -1.34516284798239
H           -6.98618090614621       -0.15900743070384       -1.82850782045622
H           -7.21468586028590       -1.63875261191561       -2.79082868809938
H           -5.77602815002265       -0.62701874819397       -3.06012580760658
H           -4.75384159340389       -3.97994813325135        2.41696616184638
H           -5.07923537974860       -5.25291851860332        1.21527411473682
H           -3.44199904674054       -4.56718030029854        1.35388455569799
H           -3.06511303703878       -2.35241229047265        2.11617188823157
H           -2.28834039343340       -0.05588661658952        2.01142957745251
H           -3.28013629527799        2.27516252850165       -1.88855212591596
H           -1.91804242654190        3.14997349754735       -1.19998870231225
H           -1.98102825128006        0.12932887189593       -1.65864180852155
H           -1.33338348574351        1.31471876539391       -2.79585996926996
H           -0.91652873755039        1.61583331674485        0.77904104465975
H            0.38988086707868        2.02349959076498       -1.07798559042533
H            2.02565227338989       -0.50593298960707        0.62839974673113
H            2.10022356717204        1.14855320877899        0.00436061788358
H            2.65366802101820        0.25227718790281       -2.26504147559083
H            2.67290987480849       -1.38926915966992       -1.60145837194532
H            4.39941036988189        1.87020180401298       -1.65667882657357
H            6.68328437755957        2.22516829181525       -0.88907418864451
H            8.41765326675439        2.39379126578461        0.71668148924183
H            9.00622056849128        1.75640969935826       -0.84628177735724
H            9.86682685411069        1.36069552512572        0.66154802719304
H            7.22025157528546       -3.72826082488864        1.59880809882937
H            5.55781817622870       -3.10862796672375        1.74162169834236
H            6.17208552792642       -3.67792332704767        0.16083570600598
H            4.44328107176874       -2.09259947127964       -0.08292693108339
H           -0.24781989956183       -1.65475286485325       -1.71883733064523
H           -1.06528231559504       -1.28598092620746       -0.18576357384135
H            0.55552151428834       -1.99658366844865       -0.17988323384408
H           -4.93612728418478        2.68081336554479       -0.24200351074916
H           -4.10515422645523        2.65065054535551        2.67699215985287
H           -5.17645724458210        1.47801774414602        1.89380341312206
H           -5.67987418469843        3.15905081449966        2.06127940557496
H           -3.10275581496199        4.55958304202189        1.29965334781632
H           -3.41159881426780        4.64332774138265       -0.44244451712671
H           -4.71490327590825        4.92993907627141        0.69997141808447
H           -1.00056668261016        2.90323131529375        2.73245711764637
