  72
        -99.27503728
 N         -1.9804514435        2.9999828548        2.4191055489
 C         -1.8863277388        2.2912576552        1.3949175802
 C         -2.9734202073        2.1193866146        0.3701195675
 C         -3.4602243524        0.6789471785        0.3840971308
 C         -4.3330129049        0.2329384544       -0.6107436443
 C         -4.8184976605       -1.0636993473       -0.6199858834
 O         -5.6768707220       -1.5674192653       -1.5322257953
 C         -6.2557755183       -0.7029916855       -2.4813196521
 C         -4.4063808497       -1.9725947105        0.3910003848
 O         -4.9105851862       -3.2202225241        0.2918014991
 C         -4.6093228398       -4.1603292661        1.2960021793
 C         -3.5461323485       -1.5224150564        1.3789812773
 C         -3.0846283417       -0.2112257777        1.3773831852
 C         -2.3206325259        2.4516340691       -0.9984427270
 C         -1.4031970054        1.3505632424       -1.5650928879
 C         -0.1391196986        1.1843911779       -0.8147448401
 N          0.3804174863        0.0215096644       -0.4300494239
 C          1.6715043216       -0.0316179894        0.2148484169
 C          2.7571979140       -0.6264523645       -0.6907115245
 C          4.1069386019       -0.5834823773        0.0151583870
 C          4.8008420610        0.7490283639        0.2161788890
 C          5.8861699755        0.3776276427       -0.5146663865
 C          7.2188694551       -0.1789768879       -0.3108296612
 O          8.4122555462        0.3254247684       -0.0101420343
 C          8.4699841666        1.7341805165        0.1087639597
 C          6.7026598282       -1.4511752739       -0.4003167968
 O          7.1936998322       -2.6503456978       -0.0837669193
 C          6.3588225059       -3.7602708997       -0.3464846053
 C          5.3305621828       -0.9898622763       -0.8827463258
 C         -0.3125864841       -1.2304526492       -0.6199030314
 C         -4.1999927182        3.0486959704        0.6109056691
 C         -4.9180191059        2.6988430658        1.9123833829
 C         -3.8428296445        4.5323689697        0.6017978053
 H         -4.6482344688        0.9168226611       -1.3811986069
 H         -6.7808173216        0.1269698419       -1.9989695559
 H         -6.9716762261       -1.3108926346       -3.0309774632
 H         -5.5085196488       -0.3092983463       -3.1781661445
 H         -4.9439733149       -3.8181170507        2.2797019404
 H         -5.1531742958       -5.0626843186        1.0238792070
 H         -3.5373629110       -4.3809300245        1.3309349512
 H         -3.2354790296       -2.1821606486        2.1727740572
 H         -2.4427366245        0.1106285774        2.1827074306
 H         -3.1098703337        2.6336121187       -1.7272623795
 H         -1.7476216349        3.3742098208       -0.8967047608
 H         -1.9549218612        0.4149184737       -1.6315490699
 H         -1.1434303058        1.6598137257       -2.5858496684
 H         -0.9681114490        1.7440099627        1.1060251725
 H          0.4817226641        2.0579229349       -0.6826810395
 H          1.5859892763       -0.6335407900        1.1257596346
 H          1.9700508136        0.9788566343        0.4991263226
 H          2.8152808546       -0.0459962945       -1.6129923964
 H          2.5141412692       -1.6588016067       -0.9498722444
 H          4.5860178358        1.5879748484        0.8490972565
 H          5.0862408360       -1.2425492290       -1.9018204511
 H          7.8857248398        2.0770985949        0.9672415698
 H          8.0927342271        2.2174687318       -0.7970985028
 H          9.5181088451        1.9851773703        0.2535108339
 H          6.8985488131       -4.6351039889        0.0088323962
 H          5.4067963942       -3.6729301662        0.1852394903
 H          6.1651576130       -3.8592539282       -1.4182425954
 H          4.0592477238       -1.1323776451        0.9616729604
 H         -0.3834108384       -1.4834674703       -1.6797150829
 H         -1.3205170154       -1.1791685088       -0.2011470173
 H          0.2310865008       -2.0216791417       -0.1104432433
 H         -4.8953716662        2.8639108139       -0.2158906663
 H         -4.2690174034        2.8946358085        2.7596911348
 H         -5.2151720193        1.6530287185        1.9288720331
 H         -5.8113349221        3.3098638504        2.0111335396
 H         -3.1319777263        4.7538802175        1.3916248220
 H         -3.4282533147        4.8447369700       -0.3529995187
 H         -4.7422907613        5.1155861286        0.7810261971
 H         -1.1697743459        3.0649935237        3.0269060356
