  25
        -42.22222999
 C          3.4567433384        0.9364781341        0.0241714725
 N          2.4094774487       -0.0523597656        0.0038362324
 C          2.5645263127       -1.3710860079       -0.0039090907
 N          1.3522977822       -1.9723895681       -0.0060985905
 C          0.4025003652       -0.9925306038        0.0009294370
 C          1.0670758115        0.2195348046        0.0077080367
 C          0.3134928981        1.4914857193       -0.0091553602
 O          0.8230595653        2.5814625724       -0.0324466101
 N         -1.0401134481        1.2637735819       -0.0003773447
 C         -3.7367080143        1.1673314670        0.0116096127
 C         -1.6190120406        0.1176517915        0.0046603413
 O         -2.9218266225       -0.0103132595        0.0137501994
 N         -0.9480417929       -1.1033518016       -0.0004069690
 C         -1.6086037744       -2.3934990976       -0.0126495291
 H          3.9457858474        0.9473235395        0.9993468219
 H          4.2001350223        0.7141691490       -0.7409844674
 H          3.0140012134        1.9171185994       -0.1588190693
 H          3.5041699094       -1.8859518301       -0.0093941154
 H         -3.1182815750        2.0662285214        0.0172032535
 H         -4.3586533148        1.1414976396       -0.8826952543
 H         -4.3711283661        1.1376003419        0.8974756584
 H         -1.3382518062       -2.9642584308        0.8769977695
 H         -1.3319023371       -2.9501046890       -0.9093485021
 H         -2.6829577795       -2.2328043078       -0.0150308852
 H          1.1949984444       -2.9698051107       -0.0140577752
