25
 energy: -42.178291515080 gnorm: 0.007920433633 xtb: 6.6.1 (8d0f1dd)
C            3.76820183623985        0.58468374548550        0.12020554130188
N            2.69308624545244       -0.19177009844294        0.03834369527339
C            2.69392021377853       -1.54446057782533       -0.01928300596286
N            1.40514776306925       -2.01734482124106       -0.05991496440003
C            0.57157768760219       -0.96892656223609       -0.03441527370375
C            1.34807152183689        0.20802017552402        0.00932282418540
C            0.66849596507650        1.43887809341011       -0.01975527956234
O            1.18768070090788        2.64801658014469       -0.07762595953962
N           -0.67372067596975        1.40247194421339        0.00444266191994
C           -3.38931990695787        1.52834092295152        0.08782285794508
C           -1.36356289757032        0.30365752907067        0.01123473196160
O           -2.67143750899170        0.29674763178215        0.06480442805547
N           -0.79121328761931       -0.95592064564721       -0.04228585316684
C           -1.55672301176652       -2.18441719363264       -0.09630944983714
H            3.68452684971674        1.64225041465201        0.25113446170032
H            4.73295548086476        0.12061884016665        0.14260920401343
H            2.14763717245466        2.66675752431468       -0.17860793296755
H            3.56636869797285       -2.15876647582453       -0.01934250790616
H           -2.71953397912402        2.38348816283598        0.08683517920732
H           -4.02853364651333        1.55095136533085       -0.79338624165265
H           -4.00059792726314        1.53368610502423        0.98665195473202
H           -1.31881695635257       -2.81574177957894        0.76119069030333
H           -1.33956228192990       -2.72298424532783       -1.02056457007676
H           -2.61403130264562       -1.93648738628972       -0.07012857491813
H            1.15981476183043       -2.99351070725751       -0.10180699900504
