72
 energy: -99.691962987650 xtb: 6.6.1 (8d0f1dd)
N           -1.60486722044286        3.01946095818080        2.26464452026860
C           -1.59227016116915        2.21214487504077        1.29437346628624
C           -2.73358342077919        2.04377354627621        0.31877498280022
C           -3.25249504087273        0.60853246920305        0.26544411806991
C           -4.03003947415492        0.10627919099728       -0.82264094253705
C           -4.75365301621777       -1.05072868790186       -0.55982158852200
O           -5.79073234121414       -1.41878273279232       -1.36832023824101
C           -6.23311191503494       -0.42091160507583       -2.25173918636997
C           -4.43235596720408       -1.92457836415947        0.50671135959931
O           -5.06516273717343       -3.13400272591164        0.48785200031871
C           -4.70512167484350       -4.10576311307684        1.43705432137779
C           -3.46904221270065       -1.53017880363374        1.41315023230004
C           -2.96806074328893       -0.23388914794075        1.33143982908268
C           -2.19067885692189        2.31857307568974       -1.10011794445830
C           -1.31196152749259        1.17687222225796       -1.65174236143144
C            0.01487308635350        1.11169101826480       -1.00590043998895
N            0.62446366938740       -0.05677996705652       -0.59142565860052
C            2.00646302327908       -0.03802586559618       -0.22629874096752
C            2.94806802337647       -0.56362084574641       -1.33621860879505
C            4.37243581920404       -0.45742584699139       -0.88849580260793
C            5.09139987239378        0.70695458945238       -1.08718067746761
C            6.39687181721560        0.82385458226589       -0.63235813982610
C            7.00334387705780       -0.22456853777346        0.03635230486027
O            8.27839804135153       -0.22531204514794        0.52157476910005
C            9.07094435340610        0.91633268994965        0.32481192365464
C            6.27623328885654       -1.41697256542844        0.25228748848329
O            6.95614068921907       -2.39592855101467        0.91462229367952
C            6.31802190245292       -3.62467774989763        1.14489102870506
C            4.97623799020178       -1.51426449435757       -0.20583098745364
C           -0.03989750185336       -1.32868584501429       -0.66489994148332
C           -3.92678960420650        3.00317594502575        0.63617395562719
C           -4.52891275891912        2.77739850864835        2.02475910940155
C           -3.55864668417506        4.48371405452707        0.49825933946948
H           -4.05572031658419        0.37155789908066       -1.94474730583757
H           -6.49346524581290        0.50140077113991       -1.71335646019638
H           -7.10117049980846       -0.82158682623464       -2.76462438850790
H           -5.46230490091753       -0.17978019904982       -2.99095261768211
H           -4.92354240556013       -3.77772687976864        2.45872517889843
H           -5.31659321414588       -4.97612444734963        1.20047771826914
H           -3.64725508040187       -4.38442961997069        1.36712059543025
H           -3.12726862303832       -2.19243429193208        2.19632337050636
H           -2.28752129976085        0.08887045703462        2.11037797525871
H           -3.06050637418209        2.43496441063635       -1.74824676205496
H           -1.61784677537118        3.24335925848800       -1.11218610139555
H           -1.83118589013598        0.22779019553908       -1.53716445812739
H           -1.20404594525262        1.36107820252567       -2.73083396278871
H           -0.70816460988802        1.62335430618989        1.00867220954849
H            0.63918252333063        1.98573764010604       -1.02370558679489
H            2.14665647007993       -0.64588552230608        0.67494355527532
H            2.29104096457186        0.98906126912033        0.01199971324461
H            2.78569506982669        0.03357142798809       -2.23481639051482
H            2.69174615364988       -1.60048916886177       -1.55831975743297
H            4.63799172827203        1.53547505181204       -1.61069917229414
H            6.93278808143303        1.74233440597771       -0.81172108064284
H            8.64552158939136        1.79710620472881        0.81822055483509
H            9.21491197308974        1.13208105965119       -0.73957841288358
H           10.03352828587706        0.68206505489490        0.77712336259915
H            7.05276955837235       -4.24024620468712        1.66189910394741
H            5.43295738830716       -3.51092447598715        1.78061603092335
H            6.03146498708102       -4.11605836307431        0.20859911089527
H            4.41082315693311       -2.42026002797304       -0.04941544481475
H           -0.25040511872082       -1.63437599962009       -1.69664635650220
H           -0.98544965695193       -1.29505668457341       -0.11539296650938
H            0.59578722021122       -2.08413624453590       -0.20561359867420
H           -4.70201397499667        2.77494216880030       -0.10597879696737
H           -3.80910077107404        3.04287601204780        2.79276675274150
H           -4.82575452622496        1.74064214739844        2.16206794987299
H           -5.41140673119385        3.40456885374139        2.14552464384349
H           -2.78392616447772        4.74707424668579        1.21225690252819
H           -3.21503520502961        4.72417911560848       -0.50419251918919
H           -4.43531227227699        5.09599995019768        0.70465824192691
H           -0.74450690681041        3.05588148795847        2.81322174162760
