25
 energy: 84.741490212361 xtb: 6.6.1 (8d0f1dd)
C            3.74622736292226        0.86131369870316        0.11551206637246
N            2.53242786181272        0.11777644880514       -0.07656011082911
C            2.64180818594385       -1.21056148418257       -0.31428009243140
N            1.42023359428333       -1.79092963166813       -0.32883547348668
C            0.43899363389108       -0.85033291374631       -0.11467304373948
C            1.10583954537888        0.42052957662299        0.01497762679113
C            0.40008765442690        1.54669157812199        0.21161269030726
O            0.10842537885280        2.69541197224423        0.32385033328091
N           -2.17368715053094        1.11569202742391       -0.10355275551889
C           -3.00550854320671        2.24733746029080       -0.12237780539094
C           -2.64742741377941       -0.00311451553788       -0.11856697536022
O           -3.39810530659167       -0.88278173225482       -0.16278606246524
N           -0.82277916641607       -1.07195917195630        0.00129712006380
C           -1.14654442716969       -2.48076128925192        0.04216921754665
H            3.83495603688868        1.45062525137477        1.03802105198247
H            4.53254844481175        0.03539981277820        0.00541996845243
H            3.88353189853863        1.69267109036288       -0.57390440665785
H            3.54373876250794       -1.76553721785418       -0.29710075628838
H           -2.31634511321289        3.10900042169001        0.03030583816267
H           -3.54729453579855        2.29878774027575       -1.07510750056219
H           -3.76679638500768        2.07392714884780        0.63935107042487
H           -0.71045286138320       -2.95567020685629        0.91997260457961
H           -0.75635870289312       -2.98105267026097       -0.84371090112293
H           -2.21527828992407       -2.61343641758905        0.15568630490201
H            1.26919086524239       -2.77683665125357       -0.31707232440591
