25
 energy: 83.933347324026 xtb: 6.6.1 (8d0f1dd)
C            3.77565442621220        0.83844919113980        0.13734818258319
N            2.56868895096325        0.08997807831846       -0.04415436393405
C            2.67526232109472       -1.24021850678001       -0.27619951133950
N            1.45108734095152       -1.81429857845508       -0.26936820750488
C            0.47382278024527       -0.85889143934246       -0.08776152260227
C            1.15760840682702        0.40940883300133        0.03159242295741
C            0.48441764346585        1.55418862966152        0.18904641059208
O            0.16618427457864        2.68605382034253        0.36980356717131
N           -2.29429898370871        1.11975858884434       -0.10821007209816
C           -3.08142534668690        2.27976367574790       -0.11632970276689
C           -2.77386751182173        0.01589723533526       -0.13268837917448
O           -3.44042752521810       -0.92433239346382       -0.16870026955155
N           -0.78518198792019       -1.06214678353493        0.00888352424285
C           -1.14117192491291       -2.45935384042718        0.06617384252814
H            3.78493242899248        1.52456041124081        0.99914039094395
H            4.54756123171896        0.00740579969579        0.14718378942341
H            3.98166903383648        1.60100323576503       -0.61002145109094
H            3.60148636625096       -1.75871091986154       -0.31929593603602
H           -2.37245434036174        3.12173743765310        0.03772970146824
H           -3.62914117620707        2.33646729406684       -1.06610529455507
H           -3.83202167086340        2.13681867359877        0.66150528858100
H           -0.67932232885718       -2.93149359951548        0.93247957011234
H           -0.78008649975419       -2.97943325186015       -0.82470582515979
H           -2.21876226880817       -2.56548775437721        0.19557596238309
H            1.30825754227230       -2.79846885903556       -0.35919512490926
