25
 energy: -42.501804592359 xtb: 6.6.1 (8d0f1dd)
C            3.16021729297561        1.09347200264760        0.06737558559802
N            2.14234495023136        0.06876371020221        0.02738745899150
C            2.35859108001225       -1.26289237634755        0.06218948317888
N            1.15134157269563       -1.88442974505812        0.07691326729880
C            0.12770733249922       -0.96924480196385        0.03724325934919
C            0.76406618236202        0.27776191936731       -0.00034498778770
C            0.01308770739654        1.48593762914128       -0.05727282549777
O            0.46149667060534        2.62401566631305       -0.10280925737709
N           -1.35846790516887        1.20548400001004       -0.05029058858420
C           -2.16644704990373        2.41244731029120       -0.05109886996180
C           -1.99263029350054       -0.07067118436182       -0.03374524285814
O           -3.19884108095295       -0.12760763816919       -0.02966664221796
N           -1.18102246405487       -1.22982699873051        0.00760616855503
C           -1.01385557389590       -3.31942159444812       -0.14296238915139
H            3.80828407532092        0.97306101380486        0.95101167477515
H            3.79977385584363        1.06051222041848       -0.82161687004625
H            2.67789422902520        2.07169253084009        0.10318597259575
H            3.31197300730146       -1.77936732076399        0.07377705338820
H           -1.40667020454111        3.20087632493283       -0.03655869116395
H           -2.78518939021420        2.44018349101248       -0.94962991826342
H           -2.82019356873041        2.43512676426413        0.82371438601879
H           -0.52703048804675       -3.64342480911027        0.75852147316264
H           -0.42711097559679       -3.50349949802634       -1.02499079094382
H           -2.08536793008443       -3.39259948817967       -0.12390937530605
H            0.84298548542573       -2.84190040257435        0.21602495040401
