25
 energy: -42.147565706426 gnorm: 0.003946480848 xtb: 6.6.1 (8d0f1dd)
C            3.04394565791768        1.18884297734083       -0.04063095040547
N            2.15015178491849        0.06389636255595       -0.07305119587917
C            2.52647223172995       -1.21505831122254       -0.09994331134103
N            1.43410472483517       -1.99713053030663       -0.10312517991011
C            0.32297771696320       -1.18799767956342       -0.08485554479688
C            0.77769923234716        0.12071021262201       -0.05195019663595
C           -0.00944553337744        1.38209758196515        0.05041240296066
O            0.52671099018325        2.47413018092910       -0.15068580724850
N           -1.26188764828674        1.16366712546430        0.40555784378061
C           -2.21532245758462        2.18618561981784        0.53753990840967
C           -1.82576333481796       -1.12558931509155       -1.12151283427022
O           -1.44124990034906       -0.34718465621591       -1.95026573455680
N           -0.97148254763763       -1.68960501249581       -0.15202870522102
C           -1.34638873649211       -2.71317500706876        0.63396915066660
H            3.22394813322175        1.49921398955412        0.99121049897087
H            3.99061762400554        0.92145188150697       -0.50521460942944
H            2.58600882187010        2.02936826427689       -0.56439211201906
H            3.53894928700992       -1.56614218096436       -0.11446318754582
H           -1.75812203749416        3.18414152829255        0.55623019982441
H           -2.91529932957309        2.13966633810170       -0.30547049370864
H           -2.78549333011905        2.02074525828162        1.45604087139329
H           -0.68846484340350       -3.07030166508235        1.40148046415316
H           -2.32957878931773       -3.12500063293324        0.51998534350350
H           -2.84640329451754       -1.51263955749975       -1.04504009795028
H            1.43374709207021       -3.00605423066296       -0.15862510484659
