25
 energy: 0.000000000000 xtb: 6.6.1 (8d0f1dd)
C            3.23720163006194        1.16630919979326        0.08434469647475
N            2.29877817382611        0.07527477071623        0.03981603040599
C            2.58028210190900       -1.21425402444508        0.03006176031096
N            1.43813958087363       -1.93419271955128        0.00098261760884
C            0.39035688448383       -1.05887472636071       -0.00790371836672
C            0.93510056364412        0.21347819449412        0.01709077491437
C            0.09450143893243        1.40504303904423       -0.00410947031874
O            0.49712751527797        2.54126714362870       -0.00342325688240
N           -1.25076640035757        1.06271879480407       -0.03085478223738
C           -2.21907211982101        2.15522099834493       -0.05001256985998
C           -1.81739487048744       -0.20012725993278       -0.04692818574614
O           -2.99983886758376       -0.37846417018721       -0.07008878229737
N           -0.92618586207120       -1.30210215599479       -0.03682761578324
C           -1.46982264913417       -2.64643102187190       -0.06029820460571
H            3.71247264356769        1.21471455160235        1.06488849150277
H            4.00791497605742        1.03430808813993       -0.67357694370751
H            2.69910007168542        2.09770118228144       -0.09130154882931
H            3.56654120610678       -1.63682992603973        0.04233140067262
H           -1.67107961066214        3.09322851271934       -0.02552706933167
H           -2.82428953597071        2.09428624779827       -0.95318082946668
H           -2.87644029173232        2.07745725625962        0.81450067533302
H           -1.17061996399332       -3.19584890659852        0.83242232437030
H           -1.14560257411436       -3.17511610292205       -0.95688275822323
H           -2.55549792440841       -2.55659984320617       -0.07459039797972
H            1.38130855184625       -2.94313852034425       -0.01389874181052
25
 energy: -0.579233178689 xtb: 6.6.1 (8d0f1dd)
C            3.25923932126085        1.19940278743055        0.08652532953889
N            2.32424349802035        0.11252270965232        0.03920962066339
C            2.62374160469629       -1.21140569683429        0.03208984198878
N            1.45597286382350       -1.92955645128745        0.00302722959746
C            0.40727632787485       -1.06101452911855       -0.00754818982681
C            0.94358634080822        0.22454214139069        0.01654133741595
C            0.11711623059635        1.39833576737517       -0.00427534368067
O            0.51148603689061        2.56488172873096       -0.00259447613276
N           -1.24229262595451        1.04960511330205       -0.03196664921137
C           -2.20518455167582        2.14307864033337       -0.04996141234220
C           -1.80720847309555       -0.20166606861012       -0.04953022982385
O           -3.00297351705434       -0.38002893116329       -0.07502528176876
N           -0.93697224404220       -1.31294944080241       -0.03752977804133
C           -1.54600912357967       -2.64837790403364       -0.06051357281955
H            3.74432958852550        1.24655446991457        1.06547308113952
H            4.02755274072882        1.07182629373004       -0.67825333036780
H            2.71384460008893        2.12556282144454       -0.08432392357191
H            3.60784542058628       -1.62541521840453        0.04529661546022
H           -1.65078829283601        3.07864694659431       -0.02483053373836
H           -2.81036288406040        2.08545700492329       -0.95402829854964
H           -2.86200063223338        2.06721047120932        0.81577347061545
H           -1.24384953093781       -3.18842976308419        0.83442147837571
H           -1.23297474682086       -3.16316711194286       -0.96440332364030
H           -2.68830678726422       -2.72341047855303       -0.07563711251185
H            1.40490350359043       -2.93317670002480       -0.01090265262092
25
 energy: 13.299362245437 xtb: 6.6.1 (8d0f1dd)
C            3.28214887843359        1.23696286056240        0.08827261157407
N            2.34818513042494        0.15036448017647        0.03792513351376
C            2.66785490592268       -1.19675934458934        0.03606618126599
N            1.48559503811736       -1.91602112903030        0.00680168813938
C            0.42412407426345       -1.07226969210872       -0.00632284871871
C            0.94977973934131        0.23117729131604        0.01590344171243
C            0.14589374249922        1.38551060679178       -0.00429262381156
O            0.52114056840604        2.56978443202797       -0.00112102280556
N           -1.22951075491317        1.03642340517972       -0.03378384142001
C           -2.18487605576514        2.13093694545098       -0.05008794169235
C           -1.78620028687711       -0.20612001688344       -0.05328896975702
O           -2.98724375203631       -0.38027212574417       -0.08334174803865
N           -0.94990414730587       -1.33332172076379       -0.03798871131790
C           -1.64157051186654       -2.66125300915175       -0.06096237022144
H            3.78472560908375        1.28741667023926        1.06158316988046
H            4.04966738498455        1.12479318675433       -0.68390068654568
H            2.73484347596496        2.16371272434497       -0.07240049908506
H            3.65478881027273       -1.59356068535795        0.05010128784137
H           -1.62430397891020        3.06362460577336       -0.02401760569575
H           -2.79025980220515        2.07471712664499       -0.95433070290474
H           -2.84091281391128        2.05432560033136        0.81641133632902
H           -1.35202543180679       -3.18839295826570        0.84204660569858
H           -1.36242363299802       -3.15561279865032       -0.98327588984790
H           -2.84349200447005       -2.89894414608078       -0.07297654836898
H            1.45619048328726       -2.91819370679536       -0.00598554957645
25
 energy: 27.489633123531 xtb: 6.6.1 (8d0f1dd)
C            3.29511220083329        1.26486785224180        0.08845925725089
N            2.36488259456758        0.17109305794994        0.03760439329624
C            2.69720336124141       -1.17888144538562        0.04027132317597
N            1.51957631813480       -1.90565791739570        0.01118109581500
C            0.43900636160642       -1.08838109090600       -0.00395556745866
C            0.95774255213522        0.22880432113588        0.01631140688051
C            0.16580405721179        1.38071355150823       -0.00392624842666
O            0.52716669013798        2.56829895852557        0.00015789426159
N           -1.21646114345577        1.02963667281094       -0.03548897113859
C           -2.16923411796449        2.12190370037969       -0.05063608086066
C           -1.76714027893689       -0.21383841916656       -0.05678336621092
O           -2.97016823392966       -0.38305161729636       -0.09189365500589
N           -0.95335766157389       -1.35547485199141       -0.03677984649420
C           -1.71865039488859       -2.68057722946215       -0.06144716379748
H            3.81156711222339        1.31757772802163        1.05585216215596
H            4.06053831656173        1.16907392778192       -0.69019298960745
H            2.74774524342454        2.19467055607402       -0.06103620277474
H            3.69179424721081       -1.55861781658002        0.05431448761363
H           -1.60535244804639        3.05237191294038       -0.02375736310357
H           -2.77415415027069        2.06533661465113       -0.95497784142808
H           -2.82393404013670        2.04315545506531        0.81655904918996
H           -1.44480129132466       -3.20187198550274        0.84571690244721
H           -1.47529789251173       -3.15742505983882       -1.00084002501757
H           -2.96360284181040       -2.98488597121585       -0.06716301305313
H            1.51623010749715       -2.90981230217322       -0.00051574156204
25
 energy: 34.109405039408 xtb: 6.6.1 (8d0f1dd)
C            3.29924971375277        1.27289232469529        0.08800442166353
N            2.37160984489614        0.17516543721907        0.03793114680678
C            2.70531740169022       -1.16940980398708        0.04273797724969
N            1.53634836555209       -1.90021149500681        0.01376647571581
C            0.44648930158535       -1.09415600099104       -0.00177612824461
C            0.96332788419086        0.22704985474306        0.01689535930442
C            0.17269585505315        1.38307213215460       -0.00374150700898
O            0.52980490439384        2.56766573298668        0.00067224049675
N           -1.20995696513870        1.02946917864364       -0.03617239685895
C           -2.16449703076267        2.11908507357279       -0.05111856587969
C           -1.75862836298696       -0.21711944096281       -0.05831507541845
O           -2.96180957360645       -0.38373701630398       -0.09662219964166
N           -0.95075168455334       -1.36294993772858       -0.03452910465512
C           -1.74627212618139       -2.69134809279290       -0.06155782347079
H            3.81933969871513        1.32407622014523        1.05314267175822
H            4.06152956435824        1.18238861493848       -0.69423690361336
H            2.75068360921989        2.20326020782314       -0.05641308725422
H            3.70377040825679       -1.54286429744134        0.05582588454567
H           -1.60138352692366        3.04976681736580       -0.02415387676880
H           -2.76945022191048        2.06215622554264       -0.95527060324354
H           -2.81877849052698        2.03961293080044        0.81623721937395
H           -1.47523182770600       -3.20949736338108        0.84502702314056
H           -1.51653115773820       -3.15430250288524       -1.00811544734156
H           -3.02054703626222       -3.01556586753293       -0.06368554045327
H            1.54588612056877       -2.90547032944509        0.00250173594492
25
 energy: 36.989806714722 xtb: 6.6.1 (8d0f1dd)
C            3.30056851368208        1.27315031747637        0.08774398748866
N            2.37360691119370        0.17418824151699        0.03812637269849
C            2.70443184404806       -1.16560158575852        0.04403901614552
N            1.54116206499149       -1.89741393688513        0.01468601813711
C            0.44925498867104       -1.09343284892039       -0.00072929288110
C            0.96596575306046        0.22779500454323        0.01694504316383
C            0.17407944252310        1.38617861319072       -0.00385165968192
O            0.53077523680624        2.56829865999124        0.00081601854086
N           -1.20750529790445        1.03062852490222       -0.03626731902622
C           -2.16393581538174        2.11876291610305       -0.05131661846539
C           -1.75596838345239       -0.21797576993543       -0.05878102789621
O           -2.95865998939390       -0.38392478821246       -0.09853474611652
N           -0.94718358180525       -1.36219503785032       -0.03274364862658
C           -1.74840886242294       -2.69662296477890       -0.06147095161147
H            3.82042595106410        1.32305791138607        1.05241760797352
H            4.06127685430373        1.18282494681055       -0.69532299228837
H            2.75138522760090        2.20317615681227       -0.05573768880932
H            3.70382441607326       -1.53916348895042        0.05588776497989
H           -1.60229968648423        3.05035102399717       -0.02451287032042
H           -2.76907191757276        2.06152179217877       -0.95530662969849
H           -2.81817837054571        2.03917112251231        0.81606030742427
H           -1.47760514377412       -3.21147992456627        0.84494670457655
H           -1.52397152388058       -3.15000811753750       -1.01119433229537
H           -3.04561431871340       -3.02945502466870       -0.06237867175543
H            1.55386035524952       -2.90280314118491        0.00351350449142
25
 energy: 39.891027395910 xtb: 6.6.1 (8d0f1dd)
C            3.30155756441814        1.27223296475044        0.08758223065331
N            2.37513403552256        0.17241416501785        0.03810616338556
C            2.70192498079715       -1.16344065733689        0.04531886048540
N            1.54273785085396       -1.89569154589364        0.01506940970837
C            0.45138941214886       -1.09031490796129       -0.00022952783817
C            0.96804118743650        0.23008541632468        0.01671087213006
C            0.17425750107834        1.38917374593385       -0.00397584340423
O            0.53160150780735        2.56997002785598        0.00086904287888
N           -1.20600313275969        1.03174584826002       -0.03603920193800
C           -2.16414266653140        2.11890759890527       -0.05139030725242
C           -1.75457868301662       -0.21837197646832       -0.05886354224607
O           -2.95652722880822       -0.38465738698658       -0.09954767398936
N           -0.94208238526295       -1.35808117054246       -0.03097404785918
C           -1.74061298940443       -2.70058882220085       -0.06132675861139
H            3.82005347562214        1.32149401582476        1.05246292010681
H            4.06171969430394        1.18091585413334       -0.69523525818931
H            2.75143829638589        2.20135225250781       -0.05641492678829
H            3.70133002245476       -1.53951543095788        0.05510286034938
H           -1.60410208256055        3.05160253051981       -0.02477909059884
H           -2.76944406463360        2.06129316974603       -0.95529356901224
H           -2.81847826152561        2.03929377987384        0.81596675382210
H           -1.47419355469679       -3.21115870302562        0.84649895021760
H           -1.52391491142246       -3.14533410265749       -1.01417557667097
H           -3.06936701875818       -3.04336025906250       -0.06232491897440
H            1.55447611848712       -2.90093780438818        0.00391607578267
25
 energy: 42.447070602343 xtb: 6.6.1 (8d0f1dd)
C            3.30229232341141        1.27205244266533        0.08761518779914
N            2.37643226581757        0.17186399042457        0.03786117970562
C            2.70139197483627       -1.16327127329659        0.04626416627691
N            1.54242022289824       -1.89565484967867        0.01491676333414
C            0.45282714270135       -1.08758576105835       -0.00056932253211
C            0.96918071803644        0.23223485111852        0.01640336916371
C            0.17405843823082        1.39020294219916       -0.00402427399870
O            0.53215405933990        2.57144611163915        0.00079654598519
N           -1.20564800811112        1.03220348504544       -0.03571660545173
C           -2.16437720339457        2.11921419522654       -0.05129980362765
C           -1.75417411753914       -0.21827091320768       -0.05873135089960
O           -2.95562878085220       -0.38558799831347       -0.09945466160439
N           -0.93802285005148       -1.35410098420231       -0.03030868556721
C           -1.72967657935123       -2.70119447615931       -0.06124972591813
H            3.81961472264071        1.32155754139469        1.05303370730092
H            4.06296514123415        1.17992531160583       -0.69449098698307
H            2.75123682258771        2.20031300370498       -0.05738137483657
H            3.70022720987217       -1.54170344278706        0.05393039941383
H           -1.60507958873665        3.05244019791770       -0.02474345387231
H           -2.76970991195181        2.06130261883756       -0.95522478366990
H           -2.81884331627638        2.03946913064033        0.81600299562351
H           -1.47183695626150       -3.20875175222754        0.84910636990205
H           -1.52169819610102       -3.14260202404309       -1.01586262366034
H           -3.08862489639264       -3.05572943235205       -0.06356503088402
H            1.55073403134923       -2.90074431292173        0.00372589514800
25
 energy: 45.114325978775 xtb: 6.6.1 (8d0f1dd)
C            3.30296180759460        1.27257304822891        0.08780337923448
N            2.37761869498476        0.17248969263992        0.03755764282121
C            2.70302244528163       -1.16402224454785        0.04712128729077
N            1.54184772136861       -1.89638722611583        0.01449899240851
C            0.45423357283356       -1.08576184232633       -0.00145198786245
C            0.97004300774279        0.23372777650721        0.01618622396343
C            0.17387279713949        1.38993781958831       -0.00403547462491
O            0.53243482988813        2.57237252444816        0.00061159049049
N           -1.20579442934560        1.03235792516347       -0.03543504264860
C           -2.16451983184928        2.11953042848256       -0.05113359707200
C           -1.75393585469572       -0.21782842949855       -0.05848991940075
O           -2.95509681404923       -0.38673904494683       -0.09861772512361
N           -0.93480813369510       -1.35136161539858       -0.03066875989982
C           -1.71765878771224       -2.69855064329745       -0.06125385689211
H            3.81952179992885        1.32269383430162        1.05380483571372
H            4.06453661950689        1.17993811344745       -0.69357308026687
H            2.75127323478127        2.20025987549583       -0.05817384268410
H            3.70102934912605       -1.54379684861321        0.05257805003835
H           -1.60544603952746        3.05286925824518       -0.02453916069562
H           -2.76979742709509        2.06130866301122       -0.95511763747164
H           -2.81909974447984        2.03946055995181        0.81608543488614
H           -1.47214934426148       -3.20501697329062        0.85207889422864
H           -1.52011253358849       -3.14118553317650       -1.01653082519553
H           -3.10775073472644       -3.06848033010786       -0.06548866175496
H            1.54598846278553       -2.90136018602004        0.00321713666449
25
 energy: 46.668892570090 xtb: 6.6.1 (8d0f1dd)
C            3.30322751103671        1.27316147745734        0.08798423585367
N            2.37789914524429        0.17361442963979        0.03746991170178
C            2.70530049048419       -1.16469063900395        0.04757939196208
N            1.54183278597604       -1.89693309256950        0.01421242383827
C            0.45510325469895       -1.08562226078434       -0.00211381307369
C            0.97044468675688        0.23376816551738        0.01624662284896
C            0.17387497091186        1.38915856226634       -0.00402127876679
O            0.53233212347949        2.57233700451471        0.00048601206810
N           -1.20594736637861        1.03232060500845       -0.03540702617515
C           -2.16449598024419        2.11960390290897       -0.05103649494120
C           -1.75360844950653       -0.21737342492280       -0.05833109935649
O           -2.95474064228968       -0.38749237130085       -0.09771199333260
N           -0.93375536649500       -1.35154252594880       -0.03167218664213
C           -1.71076515145568       -2.69427287089592       -0.06128939340466
H            3.81977410484652        1.32365459718008        1.05419947401628
H            4.06528037179647        1.18042479847256       -0.69314391334853
H            2.75169654778451        2.20094400943166       -0.05833711121011
H            3.70282823487692       -1.54403862478779        0.05178667479807
H           -1.60536929261998        3.05281775277175       -0.02437293895489
H           -2.76971808008494        2.06118883682075       -0.95504953603691
H           -2.81910995363304        2.03920324185073        0.81612259206477
H           -1.47471829702318       -3.20251036277974        0.85348104959626
H           -1.52066817075835       -3.14129901444007       -1.01615764360240
H           -3.11849798160876       -3.07549812316949       -0.06673235603009
H            1.54401517214136       -2.90189547106526        0.00284229227466
25
 energy: 47.195550432360 xtb: 6.6.1 (8d0f1dd)
C            3.30318525110835        1.27338589727649        0.08806329243689
N            2.37748455278981        0.17437182721632        0.03758761338843
C            2.70658196615378       -1.16481122195381        0.04771872855160
N            1.54222533042128       -1.89692624344103        0.01416889229163
C            0.45539856090405       -1.08619882627365       -0.00222007054504
C            0.97057058805375        0.23312043470472        0.01644792588670
C            0.17401052074934        1.38876760158694       -0.00400531531365
O            0.53213954665482        2.57194156130326        0.00049047813143
N           -1.20581634279253        1.03225456657014       -0.03556281236948
C           -2.16437390185182        2.11947136003110       -0.05103380037841
C           -1.75324210428742       -0.21710124005933       -0.05831845125175
O           -2.95445482339508       -0.38764833789559       -0.09724780360196
N           -0.93408375567228       -1.35327927594161       -0.03253860406005
C           -1.70870805265112       -2.69078665025534       -0.06131732823572
H            3.82004358982426        1.32387699075216        1.05418213710926
H            4.06520097389415        1.18069403455941       -0.69320862690336
H            2.75221025254185        2.20158398748635       -0.05813895702643
H            3.70411240662960       -1.54307095504171        0.05157728526108
H           -1.60520314755400        3.05260738009665       -0.02432648804340
H           -2.76958270483968        2.06101264819424       -0.95502956592453
H           -2.81894479572249        2.03889586316377        0.81611525843658
H           -1.47703923176714       -3.20181603282150        0.85337572912618
H           -1.52213950357160       -3.14181481214042       -1.01548903361997
H           -3.12203768407210       -3.07757005816079       -0.06702347170124
H            1.54467717638840       -2.90193189678479        0.00276688450250
25
 energy: 47.281255511520 xtb: 6.6.1 (8d0f1dd)
C            3.30315081012450        1.27332483907718        0.08805311755576
N            2.37713896279890        0.17449054550936        0.03771754978113
C            2.70657140914771       -1.16455817242634        0.04770950726150
N            1.54257575712876       -1.89660032326466        0.01423087855309
C            0.45539376849375       -1.08645083061370       -0.00198336250849
C            0.97063172868566        0.23279375030192        0.01655632743984
C            0.17417735353016        1.38893003616655       -0.00399871063562
O            0.53211131968527        2.57180457494709        0.00055832115165
N           -1.20553094365128        1.03221874979293       -0.03570493882215
C           -2.16427274808776        2.11930911279460       -0.05106979929432
C           -1.75299200897086       -0.21705498099258       -0.05838413332148
O           -2.95425138695519       -0.38746697296704       -0.09726567476966
N           -0.93453427036528       -1.35448314685160       -0.03279779390419
C           -1.70891932424117       -2.68959979479212       -0.06132282308106
H            3.82017269351680        1.32365106623598        1.05403343503087
H            4.06496344145800        1.18063022917065       -0.69339828345319
H            2.75250139980906        2.20175952249305       -0.05798718913013
H            3.70430853662691       -1.54227440830772        0.05168998532647
H           -1.60517936442802        3.05251488865710       -0.02436176652856
H           -2.76950406265220        2.06088449973652       -0.95502891309297
H           -2.81878999133703        2.03872708428524        0.81609705004493
H           -1.47765075495140       -3.20214757659517        0.85288677571426
H           -1.52310562120845       -3.14187926097590       -1.01527789430028
H           -3.12273306446782       -3.07785736692539       -0.06679659100893
H            1.54598102824720       -2.90163746228396        0.00287882213881
25
 energy: 47.235342019744 xtb: 6.6.1 (8d0f1dd)
C            3.30317402938892        1.27321895827439        0.08801466178914
N            2.37702656292885        0.17431146452143        0.03780853758381
C            2.70611390376791       -1.16431462728377        0.04759049696486
N            1.54276097419802       -1.89629947078907        0.01425794419367
C            0.45532005849727       -1.08639620142218       -0.00169860049837
C            0.97069306426819        0.23276275520736        0.01658383805136
C            0.17429046567424        1.38923361106638       -0.00398001905948
O            0.53214101153277        2.57187147933748        0.00062573722290
N           -1.20530193049100        1.03214474127610       -0.03579138655308
C           -2.16421730193857        2.11916273885017       -0.05110149279029
C           -1.75287592643136       -0.21712954080850       -0.05845953431945
O           -2.95415009377944       -0.38729725912221       -0.09741652952639
N           -0.93480357665910       -1.35507712656929       -0.03279414973614
C           -1.70937535739404       -2.68944225465819       -0.06130639190477
H            3.82018717528006        1.32342047057538        1.05392506221592
H            4.06480244391174        1.18050362602914       -0.69353504021570
H            2.75254941845271        2.20169064696238       -0.05793931485928
H            3.70404503164663       -1.54193797891951        0.05189988927798
H           -1.60521061605922        3.05244808058901       -0.02440603550357
H           -2.76948157778152        2.06078925027879       -0.95503515700631
H           -2.81870320315686        2.03863377926657        0.81609135118688
H           -1.47747942962538       -3.20266872059813        0.85250726364757
H           -1.52359394948281       -3.14179104173262       -1.01531359688334
H           -3.12264440230413       -3.07744212988879       -0.06652037874580
H            1.54694789349237       -2.90136664827031        0.00302674161516
