  72
        -99.40519399
 N         -1.0926466516        2.8333210112        1.9070236495
 C         -1.3044607543        1.6638108506        1.0979569239
 C         -2.6492044675        1.7102295749        0.3040359262
 C         -3.3787228172        0.3558231080        0.3673174069
 C         -4.1330157371       -0.0647526589       -0.7295148728
 C         -4.8581790464       -1.2461725674       -0.7065589437
 O         -5.6182206950       -1.7117995156       -1.7168478312
 C         -5.7882166412       -0.9290871327       -2.8749152559
 C         -4.8283872582       -2.0632581853        0.4561809502
 O         -5.5421874575       -3.2010860999        0.3883256667
 C         -5.5886549542       -4.0501930470        1.5122004797
 C         -4.0943619097       -1.6278922589        1.5489685199
 C         -3.3924597742       -0.4320601620        1.5101245054
 C         -2.2194452746        2.0106225263       -1.0776701951
 C         -0.7735945789        1.9017361278       -1.3110682532
 C         -0.1619282647        1.4535533958        0.0306498478
 N          0.3482653604        0.1113161691        0.0746001160
 C          1.7663568477       -0.0776505110        0.2001366411
 C          2.5632292024        0.1166611421       -1.1137124193
 C          4.0354804584        0.0867989873       -0.8366629415
 C          4.7897130490        1.2512795947       -0.8510966527
 C          6.1468893068        1.2259629501       -0.5720959552
 C          6.7808822856        0.0320987773       -0.2559771216
 O          8.0858889263       -0.1117850969        0.0334010218
 C          8.9270026284        1.0185039650        0.0085954939
 C          6.0142049484       -1.1682369179       -0.2254122015
 O          6.7039910763       -2.2777093822        0.0994694483
 C          6.0322864081       -3.5128216772        0.1733317554
 C          4.6608618849       -1.1179623457       -0.5203514812
 C         -0.3751155070       -0.9390128800       -0.5912309948
 C         -3.7298707855        2.7545293040        0.7627056117
 C         -4.1437881550        2.5839811332        2.2184980427
 C         -3.3356991368        4.2113642212        0.5059103581
 H         -4.1585946970        0.5439839253       -1.6171911335
 H         -6.2220084616        0.0472680058       -2.6381619062
 H         -6.4791744913       -1.4863536189       -3.5045168501
 H         -4.8433356884       -0.7913416683       -3.4101947865
 H         -6.0205503495       -3.5427850023        2.3798868282
 H         -6.2296081522       -4.8811952170        1.2243707844
 H         -4.5946645445       -4.4300306331        1.7677733695
 H         -4.0709482868       -2.2109727395        2.4550198156
 H         -2.8732167539       -0.1299575628        2.4044000674
 H         -2.8899346998        2.3554330121       -1.8429898982
 H         -0.8644738571        3.6543994666        1.3628860343
 H         -0.5454748171        1.1988972004       -2.1196618690
 H         -0.3560333873        2.8645211598       -1.6331843641
 H         -1.2859907728        0.8044039496        1.7667922747
 H          0.6689508886        2.1115567976        0.3012378562
 H          1.9405071469       -1.0897654731        0.5734263851
 H          2.1482014488        0.6244048648        0.9461679627
 H          2.2893485325        1.0752639858       -1.5572444477
 H          2.2967759322       -0.6784702664       -1.8121160983
 H          4.3222555526        2.1933578787       -1.0942694100
 H          6.7062438157        2.1466210240       -0.6035877015
 H          8.6150774366        1.7662212930        0.7440146367
 H          8.9557833625        1.4735015894       -0.9860023911
 H          9.9183037272        0.6506572336        0.2662445848
 H          6.7884859827       -4.2396891289        0.4635466986
 H          5.2402940818       -3.4930098332        0.9286310214
 H          5.6089185796       -3.7979362100       -0.7946545518
 H          4.0753514965       -2.0237100850       -0.5165955973
 H         -0.0903062667       -1.0546223159       -1.6450951629
 H         -1.4424087855       -0.7401029173       -0.5383931296
 H         -0.1728365724       -1.8839564269       -0.0853024805
 H         -4.5996191707        2.5335689030        0.1327224845
 H         -3.2827397668        2.7034885748        2.8694512825
 H         -4.5963198000        1.6118138230        2.3923014001
 H         -4.8763888511        3.3470632471        2.4700000800
 H         -2.7711246348        4.6131492327        1.3407344421
 H         -2.7512021065        4.3145185928       -0.4055423955
 H         -4.2369823080        4.8106517175        0.3983619077
 H         -0.3847702844        2.6802996205        2.6129100371
