  25
        -42.18492740
 C          2.9565454279        1.3049934846       -0.0266602097
 N          2.1018752570        0.2713456694       -0.0194185827
 C          2.4654097213       -1.0390903244       -0.0511909273
 N          1.3470675260       -1.8258061336       -0.0450782308
 C          0.2636930932       -1.0346736448       -0.0104608341
 C          0.6999849969        0.3072449095       -0.0030117970
 C         -0.2398838392        1.3183883209        0.0063787872
 O          2.5791174394        2.5637329852        0.1893150040
 N         -1.5561592595        0.9563841414       -0.0358235709
 C         -2.5940599013        1.9652021543       -0.1129015290
 C         -2.0232620005       -0.3545521680       -0.0151235927
 O         -3.1951941949       -0.6102024865       -0.0271344751
 N         -1.0506118492       -1.3652743205        0.0218524638
 C         -1.4766929261       -2.7450725996        0.1231313135
 H          4.0091596497        1.0855568229        0.0524669902
 H          2.0333496418        2.9832888802       -0.4862517411
 H         -0.0213120573        2.3683311078        0.0726473059
 H          3.4687135088       -1.3997268024       -0.0490974467
 H         -2.1573275452        2.9563611285       -0.0439488182
 H         -3.1331383506        1.8639692680       -1.0558478877
 H         -3.3122523340        1.8187633547        0.6937119362
 H         -1.1207390817       -3.1823821470        1.0568992635
 H         -1.1090519622       -3.3243203859       -0.7236506638
 H         -2.5655535356       -2.7547865961        0.1162164596
 H          1.3677671252       -2.8332909698       -0.0465477804
