  25
        -42.19133510
 C          3.3256108565        0.4263406858        0.0081630335
 N          2.0955285509       -0.3164351315        0.0161990731
 C          1.9614099873       -1.6502853921        0.0118438045
 N          0.6471451322       -1.9777029133       -0.0137259141
 C         -0.0721820802       -0.8213421667       -0.0290764786
 C          0.8336692024        0.2340138662       -0.0074302064
 C          0.3946702471        1.6032023966       -0.0207386248
 O          1.0817932927        2.6031320346        0.0029685667
 N         -1.0269734305        1.6711633268       -0.0707293966
 C         -1.5629571294        3.0193915161       -0.1151575864
 C         -1.8807332832        0.6562153902       -0.0820957768
 O         -1.8815124477       -2.8580982708        0.4371892622
 N         -1.4149455604       -0.6108667414       -0.0497162723
 C         -2.3567933600       -1.7237709812       -0.2040860943
 H          4.0119456246        0.0306030957        0.7559420734
 H          3.8001951532        0.3640978320       -0.9732785242
 H          3.1057325079        1.4714562702        0.2236985437
 H          2.7671191154       -2.3545381781        0.0316209585
 H         -1.0120674941        3.5986842710       -0.8568350871
 H         -2.6178589505        2.9755723146       -0.3689227034
 H         -1.4326457195        3.5042198936        0.8535901310
 H         -2.4427183450       -1.9572351191       -1.2751030452
 H         -3.3278671336       -1.3788137140        0.1649181274
 H         -2.2312848105       -2.9360286550        1.3338419184
 H          0.2358651569       -2.9038522821       -0.0107232907
