25
 energy: -0.133581692012 xtb: 6.6.1 (8d0f1dd)
C            3.23514647007424        1.18443754361544        0.08907485106306
N            2.28175363743964        0.11596420028046        0.03203145495079
C            2.55778606637675       -1.24020068881228        0.03395772449787
N            1.36357276195658       -1.91485188556882        0.00269295955553
C            0.33646463918150       -1.03586263290563       -0.00977972676267
C            0.88498100457543        0.25060642286552        0.01015066045553
C            0.09996838141872        1.41984006752712       -0.01508450701985
O            0.47558885222615        2.59565820615582       -0.01129648609991
N           -1.30261699474656        1.06582218771972       -0.03412313262027
C           -2.19509381552980        2.21550179102718       -0.04854343740649
C           -1.87862166865638       -0.18459625791435       -0.04671628291430
O           -3.08152461206068       -0.32801713011339       -0.06549684162342
N           -1.00513385320788       -1.34639034814576       -0.03839814335723
C           -1.38082229514050       -2.79787408003976       -0.06192528339415
H            3.73818729413148        1.22196503820486        1.06285954045615
H            3.99236222343401        1.06307257983852       -0.68956405462597
H            2.70989947309642        2.12320617967494       -0.07479454593612
H            3.52922622854402       -1.68072675647223        0.04351840996529
H           -1.56419630026290        3.10690565021446       -0.02343167820375
H           -2.80208837594913        2.20714220574756       -0.95373625620374
H           -2.85414433038149        2.18980889911215        0.81906447323057
H           -1.01601805745302       -3.35083702358246        0.81327779693111
H           -0.98775459888918       -3.33027670303773       -0.93746028890689
H           -2.47876274773493       -2.82458252818808       -0.07956031428563
H            1.29102529125290       -2.91837925527137       -0.01068385745829
