25
 energy: -5.726368228524 xtb: 6.6.1 (8d0f1dd)
C            3.24246527150065        1.17571038399005        0.08628637059847
N            2.29974173014598        0.10549988487055        0.03442533686565
C            2.59110932129442       -1.24158709920135        0.03223917715600
N            1.40316910626758       -1.93089600660188        0.00160882320347
C            0.38071825348502       -1.05073059717360       -0.00816695164551
C            0.91097825726694        0.23453218469658        0.01432814275757
C            0.11083340759308        1.39666495534632       -0.00800148467943
O            0.49052668646835        2.57144732895516       -0.00473861050198
N           -1.27968179789087        1.05382241585379       -0.03134308385740
C           -2.21217717380489        2.17055467309815       -0.04940441337171
C           -1.83653998272506       -0.19347607286750       -0.04709273821654
O           -3.03676839595295       -0.36917876237582       -0.06969185284197
N           -0.95919146907416       -1.31350421824120       -0.03716222782694
C           -1.44015814147177       -2.69203884576874       -0.06075095220150
H            3.72510211358108        1.22002529016534        1.06779328546880
H            4.01077521882513        1.04310923033855       -0.67940970931601
H            2.70453112044663        2.10654795881980       -0.08765149453546
H            3.56600753031596       -1.66223233825855        0.04226955641852
H           -1.63046860708062        3.09149709091173       -0.02457363254431
H           -2.81813293547927        2.13110057366102       -0.95454212768381
H           -2.87114875409821        2.11419591904024        0.81675031533328
H           -1.12208762105892       -3.25134640562642        0.82425412170379
H           -1.09551060851119       -3.23114192619886       -0.94846135084400
H           -2.53061705372418       -2.64119016507053       -0.07669153239086
H            1.34380644791019       -2.93491699475294       -0.01325313688596
