25
 energy: 37.811978325224 xtb: 6.6.1 (8d0f1dd)
C            3.24777648904019        1.17445095293576        0.08177581814383
N            2.17799654578405        0.19747264699678        0.03879408157003
C            2.31311136082824       -1.12295798886989        0.02441297771366
N            1.09661510990506       -1.71407379531070        0.00362003917529
C            0.12395735058606       -0.72468828154271       -0.00469952583825
C            0.83972790190065        0.48594636235615        0.01690725436835
C            0.13235749216537        1.74357738753194       -0.00440326459821
O            0.67035698840088        2.84414734031007       -0.00767369768776
N           -1.22478568759754        1.53133557582659       -0.02684142302304
C           -2.07264962974168        2.70421415598604       -0.04436712437211
C           -1.90980876102181        0.26226331896900       -0.03387866001166
O           -3.11715395969860        0.27201305581041       -0.04629663000716
N           -1.17158024355565       -0.88024473309959       -0.02820727338547
C           -1.18669611300757       -4.38614549769268       -0.07981096242566
H            3.73565783537076        1.15696617847132        1.05708167939079
H            3.99398613488810        0.96420674595705       -0.68535279782628
H            2.82662217354025        2.16830011771115       -0.07984025370526
H            3.25572211260007       -1.63844763967181        0.04724620784618
H           -1.42843757828037        3.58694065360193       -0.01789662150366
H           -2.68157256803111        2.72307952792578       -0.95047213069150
H           -2.73675114272908        2.70345228298989        0.82241750873976
H           -0.76585521865117       -4.67558337418961        0.85785658870391
H           -0.72957867975433       -4.66382807798086       -1.00392254658854
H           -2.21632939728269       -4.11810328262935       -0.09879507782356
H            0.88169287772068       -2.70635708375739       -0.00734926833941
