25
 energy: 38.477877606586 xtb: 6.6.1 (8d0f1dd)
C            3.21651969947891        1.16004301451433        0.07989787607943
N            2.15778228992401        0.16776576946047        0.04114516343591
C            2.32255859543142       -1.14754384331227        0.04513426973564
N            1.11897643564039       -1.76275667485433        0.01174795088935
C            0.11891554818082       -0.79589587410471       -0.00577789029092
C            0.81404572058543        0.43006401552789        0.01213903358755
C            0.10141066071890        1.67852321470888       -0.00867653719083
O            0.63205725533538        2.78389191138773       -0.01128810279694
N           -1.25423067194705        1.44736375383076       -0.03241999025994
C           -2.07933004382402        2.63274389366783       -0.04431031336522
C           -1.92529377497286        0.16984849710122       -0.03700320902318
O           -3.13241912118485        0.16567751521443       -0.04265355866289
N           -1.16853879065869       -0.97638917322723       -0.03107114675890
C           -1.11654811296804       -4.11355759018130       -0.07576334572870
H            3.71098608415550        1.13828891314279        1.05113110416355
H            3.95609537597853        0.96425830929020       -0.69662313170990
H            2.78720268072409        2.15202402843264       -0.07112193068919
H            3.28270479406310       -1.64134519919632        0.03969033872094
H           -1.39463526152878        3.48985104475684       -0.01533405517373
H           -2.67678389384387        2.68826787240569       -0.95060542022438
H           -2.73273927503342        2.66781863288810        0.82383896980802
H           -0.70488749914289       -4.43046626588503        0.85412123696746
H           -0.66578449636540       -4.41624370288781       -0.99218575763151
H           -2.16036560310582       -3.93655164106345       -0.09726932082582
H            0.92501892092548       -2.75573266820157        0.00951507970598
