25
 energy: 31.188567406157 xtb: 6.6.1 (8d0f1dd)
C            3.20220828325631        1.18053495548648        0.08656958450122
N            2.22616257918994        0.13131087354270        0.01917263805388
C            2.48778332956750       -1.22815965924802        0.03937732744926
N            1.28755181351621       -1.88391705790468        0.00800816911357
C            0.24923691902618       -1.01682484889252       -0.01242374701681
C            0.82566141373986        0.27790761145902        0.00072302126362
C            0.09581728141413        1.47831778401799       -0.02129987487935
O            0.49278823086596        2.64837658657989       -0.02599493865306
N           -1.31499982742074        1.13465046145603       -0.03785167626600
C           -2.15685132377025        2.32335973359501       -0.04691483197859
C           -1.92677032745758       -0.11515284212578       -0.04563638401844
O           -3.12895188863427       -0.20139864157880       -0.05545231333881
N           -1.08085744159010       -1.41102792107255       -0.04094706997869
C           -1.28235322013491       -3.05369038841913       -0.06485446707146
H            3.73070252755155        1.18443205854402        1.04851754791158
H            3.94478438791295        1.05740984846892       -0.70622214132535
H            2.71887687884359        2.14704449815491       -0.04628574251849
H            3.45013763492883       -1.70091836710831        0.04346902017253
H           -1.45020971341965        3.16569056674868       -0.01921932984276
H           -2.76544304068256        2.36256659472738       -0.95093303626791
H           -2.81788294667928        2.34346450564482        0.82008523312215
H           -0.87589484103650       -3.60493135319365        0.80254872958411
H           -0.84262235028560       -3.58551994699239       -0.92816590244451
H           -2.37424109127354       -3.17673711145468       -0.08468884668716
H            1.18641807630450       -2.88420151148511       -0.00125285137433
