25
 energy: 21.141667504720 xtb: 6.6.1 (8d0f1dd)
C            3.21053664554004        1.18325941799484        0.08766519966650
N            2.23867919861344        0.12795434079292        0.02359762120235
C            2.50247754980456       -1.23051993454740        0.03750050340574
N            1.30476769547328       -1.89132162598099        0.00523844323712
C            0.26639202919503       -1.02493825960995       -0.01235959821499
C            0.83736211539156        0.27006567260557        0.00316257478946
C            0.09472270772588        1.46155899826141       -0.02098937032496
O            0.47505657039237        2.63697738489451       -0.02453320252680
N           -1.31495922941994        1.10854015519103       -0.03787003469871
C           -2.16538319254616        2.29154364691562       -0.04744159212930
C           -1.91969531349375       -0.13899229145438       -0.04673604570642
O           -3.12224734433375       -0.23761886696889       -0.05848018276848
N           -1.06440868145470       -1.41417518978823       -0.04190736804038
C           -1.31014906315766       -2.98986902990512       -0.06385740732616
H            3.73981279735950        1.19508456313600        1.04929764841444
H            3.95516024637958        1.06437061286552       -0.70370178963143
H            2.71991329946186        2.14422322749099       -0.05255637104531
H            3.46705710721349       -1.69647207369163        0.04328261970420
H           -1.47136595131211        3.14153264058044       -0.02035597336021
H           -2.77257275949365        2.32156287857655       -0.95253921484819
H           -2.82470838993472        2.30244613094057        0.82083158168897
H           -0.90704178370887       -3.53867755261385        0.80532228632199
H           -0.87518996956357       -3.52047346241512       -0.92903619875646
H           -2.40374116920836       -3.08988174696575       -0.08322968516159
H            1.21026256478177       -2.89244784347782       -0.00612357503054
