25
 energy: 37.925135902846 xtb: 6.6.1 (8d0f1dd)
C            3.26942195529622        1.18986047569245        0.08209714475818
N            2.19294671287080        0.22574408670903        0.03610722433811
C            2.31259413459857       -1.09529716124520        0.03015713812949
N            1.09102946603233       -1.67144830998724        0.00475896635551
C            0.13483289769689       -0.67449125775185       -0.00316431863784
C            0.85732189532209        0.52913039662792        0.01865690581310
C            0.15088881497179        1.78836484067569       -0.00375391009335
O            0.68241350024507        2.89137163609308       -0.00816357124355
N           -1.20841771092055        1.58640877839033       -0.02414154408817
C           -2.07112802502296        2.75135787031628       -0.04449148569653
C           -1.89619950535312        0.31942870298694       -0.03238146590794
O           -3.10410236677720        0.33992167784571       -0.04607443624299
N           -1.16284737400755       -0.81576424137254       -0.02644071187243
C           -1.25120308186850       -4.56116925974142       -0.08249008534356
H            3.75423665019079        1.17279770310524        1.05922415337540
H            4.01761203889241        0.97387615444878       -0.68155975103036
H            2.85051934101374        2.18331136919801       -0.08410865907951
H            3.24358245780888       -1.62634959174489        0.04019574428242
H           -1.44863949107636        3.64395061859878       -0.02061685894228
H           -2.68122283207954        2.74726843711640       -0.94688080311762
H           -2.73597423565007        2.73605748528451        0.81821284570341
H           -0.81862916839016       -4.83750324073919        0.85490801825657
H           -0.78448143099193       -4.82714968815687       -1.00644990242202
H           -2.27884424925962       -4.28377868805222       -0.09939972124050
H            0.87237608395473       -2.65817950930327       -0.01038454648468
