25
 energy: 41.528074271778 xtb: 6.6.1 (8d0f1dd)
C            3.19127486855751        1.17329024402541        0.08555756189752
N            2.19516364703064        0.12843403602463        0.02322526878586
C            2.42556408769479       -1.19242454262911        0.03860022870741
N            1.23803499800845       -1.84797255645259        0.01260873422281
C            0.18436665882829       -0.94640420458063       -0.01113343560016
C            0.82071603406394        0.31452878229292       -0.00010640720160
C            0.07923894036265        1.54096688825386       -0.02087536377171
O            0.53333041632946        2.67718346490377       -0.02458061856279
N           -1.28719608971756        1.24119653106567       -0.03709101684821
C           -2.13107263550971        2.40998422548988       -0.04602742476392
C           -1.92076099388514       -0.04905362919476       -0.04240033938596
O           -3.12655425268717       -0.09496178001916       -0.05083009376784
N           -1.11351880798791       -1.19791241362336       -0.03570449829090
C           -1.23246007569016       -3.46253431959323       -0.06950770130903
H            3.71953516015438        1.16455096466579        1.04453343875057
H            3.92791494394511        1.03607977112585       -0.70743142161170
H            2.72488204545531        2.15440544757376       -0.03069615293836
H            3.39244114465755       -1.68460241352102        0.04604288137337
H           -1.41796824716034        3.24361214025875       -0.01663798108040
H           -2.73913606139438        2.43678942731625       -0.95078772185236
H           -2.79130839883503        2.41642966641689        0.82180067115453
H           -0.79003562988340       -3.83578961391997        0.82952182154482
H           -0.75265830609217       -3.81645293253340       -0.95717938078392
H           -2.31008692580384       -3.36312815056241       -0.08742915647747
H            1.11253356284042       -2.84988000239862        0.00547085276633
