25
 energy: 40.516067244255 xtb: 6.6.1 (8d0f1dd)
C            3.18902514144052        1.16089593887866        0.08253961168963
N            2.17228093251670        0.13576089030846        0.02465190416182
C            2.38949684947780       -1.17722888560265        0.04187945868595
N            1.20217556077822       -1.82070341311228        0.01687651420884
C            0.15354423723053       -0.90739917420203       -0.00974993659590
C            0.80710719589928        0.34681259894006        0.00084722369981
C            0.08324325265657        1.58612834282160       -0.01918320421584
O            0.56509819911926        2.70973803860789       -0.02130735828361
N           -1.28023914216808        1.30357534109164       -0.03679887005994
C           -2.11366040622864        2.47718426961125       -0.04535568200312
C           -1.92720563597692        0.01264800456703       -0.04069309207980
O           -3.13308701027450       -0.01807991237900       -0.04702653663162
N           -1.13507160616795       -1.13608257596924       -0.03384544577556
C           -1.17784773971151       -3.64678728481430       -0.07126483165285
H            3.70988702085301        1.14586183910200        1.04377659522211
H            3.92235813364054        1.00750885537353       -0.70833727265157
H            2.74066269558016        2.14867365171368       -0.03920749700166
H            3.35639845826486       -1.67092390706377        0.04537521521708
H           -1.39880843802261        3.31211110710304       -0.01555390793571
H           -2.71902732699412        2.51085469674455       -0.95052779475502
H           -2.77161938244776        2.49005036682500        0.82289767668383
H           -0.74123893961834       -4.00486138518294        0.83448771372887
H           -0.70186938996390       -3.98658643072641       -0.96432745901662
H           -2.25178414756136       -3.53031838676121       -0.09035891664939
H            1.05706981915147       -2.82071752788959        0.01286094289950
