25
 energy: 38.718842007582 xtb: 6.6.1 (8d0f1dd)
C            3.20681778861871        1.15908276998585        0.07947612713273
N            2.15488058937404        0.16048875770981        0.03789736521855
C            2.33514550854637       -1.15297178131234        0.04599116629646
N            1.13393163596155       -1.77173556393907        0.01575833421964
C            0.12142723879886       -0.81901365319611       -0.00581114311841
C            0.80821985464309        0.41232207463833        0.01019292072608
C            0.08972791315147        1.65736270082665       -0.01042887006924
O            0.61591743289133        2.76522425157856       -0.01231691064471
N           -1.26516434505784        1.41835529411044       -0.03378403426151
C           -2.08601864691610        2.60382936280991       -0.04440247483384
C           -1.93062537110749        0.13765218833215       -0.03757121072107
O           -3.13774214398366        0.12978120440576       -0.04199153876892
N           -1.16474406263871       -1.00887251832081       -0.03125255121207
C           -1.12297468019208       -4.01961344858610       -0.07460584464421
H            3.70448411199136        1.13093063608059        1.04801787658610
H            3.94484213442968        0.96997391309033       -0.69906230909821
H            2.77551760477970        2.15099615953950       -0.06407020501234
H            3.29722636983781       -1.64597046663155        0.04014224254400
H           -1.38974784449371        3.45422032390532       -0.01464066087425
H           -2.68450369440527        2.65448124060084       -0.95071743680182
H           -2.74000871083975        2.63367459338965        0.82394167147723
H           -0.70754519651338       -4.34454634665053        0.85127510981725
H           -0.66834799946109       -4.32940650641311       -0.98723465166511
H           -2.17370454324922       -3.85344632127301       -0.09605155343872
H            0.95182747126333       -2.76705496324507        0.01161252570962
