25
 energy: 38.447995874431 xtb: 6.6.1 (8d0f1dd)
C            3.23736955900843        1.16673567806253        0.08079212324645
N            2.16992155801277        0.18496201437316        0.03961520732946
C            2.30983351231199       -1.13480390207948        0.02581788419855
N            1.09818310294472       -1.73498883870003        0.00460316019190
C            0.11902230305586       -0.74863897017140       -0.00500892200699
C            0.83095755726716        0.46583201426231        0.01602090168415
C            0.12363054885744        1.72071382037743       -0.00540626463851
O            0.66199652844586        2.82165343446832       -0.00868233643697
N           -1.23492813244911        1.50562853629016       -0.02862263927197
C           -2.06578211787201        2.69148960153479       -0.04411748947856
C           -1.91867971656384        0.23416242333849       -0.03516696118316
O           -3.12595883837801        0.23848751722036       -0.04608522693480
N           -1.17344535033565       -0.91021951850572       -0.02926645686053
C           -1.14334836774431       -4.29805390855847       -0.07827835971866
H            3.72687191345719        1.15054604625540        1.05532424334547
H            3.98177698762174        0.96085549889561       -0.68882238229612
H            2.81327435084803        2.15978487972974       -0.07879434734082
H            3.25747036715374       -1.63903380251353        0.03829002827944
H           -1.39754048100929        3.55907566466741       -0.01651883397847
H           -2.66454284794297        2.75223728926309       -0.94985726688721
H           -2.72096082410431        2.73225578317617        0.82299732302337
H           -0.73709183729358       -4.59487502519039        0.86083638551044
H           -0.69972174321766       -4.58246927285506       -1.00408667845061
H           -2.17210897813099       -4.08221469056794       -0.09901217146284
H            0.88429779666159       -2.73061660528867       -0.00247630086590
