25
 energy: 40.129001629915 xtb: 6.6.1 (8d0f1dd)
C            3.19202897470251        1.15845299602168        0.08122703531998
N            2.16407139253234        0.14187664465447        0.02547807621112
C            2.37441638437749       -1.17053220303463        0.04351082135236
N            1.18377989723817       -1.80762959728997        0.01785130498980
C            0.14171857645991       -0.88682769186366       -0.00901426371335
C            0.80274825645235        0.36338359229719        0.00207353634805
C            0.08665997804281        1.60612060888613       -0.01785705856808
O            0.58001245601768        2.72498870693791       -0.01941744874845
N           -1.27703536133136        1.33312112471826       -0.03640773295694
C           -2.10608066964480        2.50930290239362       -0.04508493543696
C           -1.92944082278131        0.04420872606150       -0.03987248643781
O           -3.13544431653493        0.01908247381331       -0.04553029683017
N           -1.14410912382875       -1.10568310617408       -0.03313550982963
C           -1.15726339791453       -3.73831817128793       -0.07204102717412
H            3.70663833348295        1.13797676813152        1.04417029442672
H            3.92345262207631        0.99399561028061       -0.70794347058962
H            2.75261945724324        2.14967975756184       -0.04347614883188
H            3.34094538685920       -1.66323404013070        0.04427985579310
H           -1.39398241927157        3.34712396678322       -0.01526644524213
H           -2.70947988414829        2.54692387056987       -0.95060550856112
H           -2.76253232575297        2.52606834784236        0.82344118450509
H           -0.72032168222013       -4.08813519494227        0.83586062085683
H           -0.68010844326578       -4.07059829194672       -0.96648812671634
H           -2.22840986840506       -3.61315234062500       -0.09207966050627
H            1.03065322121425       -2.80653754167976        0.01360869604697
