25
 energy: 37.924998493573 xtb: 6.6.1 (8d0f1dd)
C            3.27215119225180        1.19815139494470        0.08332703020328
N            2.20088095920167        0.23492118272755        0.03869047155959
C            2.32382340600486       -1.08378756933462        0.03008123310073
N            1.10363795176952       -1.65880317531375        0.00363912566957
C            0.14809955150791       -0.66286086590125       -0.00263140394018
C            0.86653038799632        0.54186741791563        0.02039787495936
C            0.16201124862176        1.80344604749026       -0.00108606467404
O            0.69440577963338        2.90551617089502       -0.00504270919206
N           -1.19610219809873        1.59948196599336       -0.02241826080439
C           -2.06641611569955        2.76190005954793       -0.04424555057804
C           -1.88010710865607        0.33192941289416       -0.03176669563743
O           -3.08718668017864        0.35432008059043       -0.04780290314291
N           -1.14763167319000       -0.80856562765631       -0.02572437840950
C           -1.31873110992679       -4.62996819429498       -0.08381725876313
H            3.76000882392453        1.18277050925024        1.05969476362970
H            4.01483942897530        0.97997695610193       -0.68414790008819
H            2.84856172323457        2.18882854085646       -0.08283851631085
H            3.25380708511207       -1.61622509304555        0.03810346194759
H           -1.44081783950719        3.65166813742090       -0.02049756068982
H           -2.67764942961245        2.75614206850474       -0.94672259349410
H           -2.73242830232229        2.74609242201659        0.81827876155134
H           -0.88113725063923       -4.90508735950653        0.85114506783155
H           -0.84902667659165       -4.89449595079248       -1.00616394388861
H           -2.33598334076726       -4.30593429564173       -0.09947433746321
H            0.89670295218638       -2.64557378568118       -0.01158039711384
