25
 energy: 39.585701663836 xtb: 6.6.1 (8d0f1dd)
C            3.19611048360304        1.15620055049397        0.08015630175283
N            2.15805213392226        0.14741779539272        0.02696162315115
C            2.36028947812348       -1.16455196481233        0.04404317532675
N            1.16612360864490       -1.79481604241242        0.01773003024094
C            0.13300664952617       -0.86478326292498       -0.00794636698540
C            0.80240612961003        0.37957133818167        0.00418522451574
C            0.08432431761548        1.62249564992011       -0.01622886606377
O            0.58969336328493        2.73853509125632       -0.01823867304934
N           -1.27624582545739        1.36223602808321       -0.03564330961050
C           -2.10057850804274        2.54173379173789       -0.04503387972633
C           -1.93214374657696        0.07549091543140       -0.03842837814229
O           -3.13817259317416        0.05540844103062       -0.04353327565891
N           -1.15188175692539       -1.07338904275615       -0.03205128506463
C           -1.13957312040382       -3.83312133905231       -0.07265751225819
H            3.70380939008716        1.13026612663780        1.04494966716532
H            3.92758831919608        0.98205655763174       -0.70616709740571
H            2.76209527018300        2.14906972950435       -0.04939074936646
H            3.32603100456239       -1.65630794767944        0.04246923003140
H           -1.39294432501226        3.38298455202815       -0.01568920399918
H           -2.70182238005426        2.58366363254744       -0.95098463451232
H           -2.75535814507391        2.56349049080070        0.82382784379077
H           -0.70340413817838       -4.17475508445447        0.83730546134952
H           -0.66296183470132       -4.15718091462044       -0.96903882440867
H           -2.20585686630496       -3.69587117835487       -0.09357624238530
H            1.00390146797318       -2.79263332869973        0.01320606265781
