25
 energy: 41.019797899391 xtb: 6.6.1 (8d0f1dd)
C            3.18821599784702        1.16614506063281        0.08404326953000
N            2.18245465783692        0.13077854875118        0.02400627164422
C            2.40614273825022       -1.18451509324947        0.04032519142133
N            1.22039266804283       -1.83423958912167        0.01530578707453
C            0.16706975582984       -0.92750807965070       -0.01042540607902
C            0.81307882518750        0.32986563094740        0.00001714751535
C            0.08041864644033        1.56342728249903       -0.02016878512973
O            0.54923254319542        2.69310177170495       -0.02299535040090
N           -1.28383174248760        1.27311299750875       -0.03702745985233
C           -2.12205847397674        2.44427478508115       -0.04564625834247
C           -1.92445383060708       -0.01842518818795       -0.04156319050747
O           -3.13018377861136       -0.05598877347537       -0.04883484479066
N           -1.12531136095519       -1.16637631304127       -0.03466638597857
C           -1.20271216875613       -3.55651455912349       -0.07046903527559
H            3.71385575817176        1.15469877694420        1.04385138884899
H            3.92346599101666        1.02162208022076       -0.70805844481219
H            2.72928570966714        2.14963863288630       -0.03469335533311
H            3.37336366989042       -1.67797751589745        0.04593588437841
H           -1.40618274028612        3.27742349179954       -0.01594060139428
H           -2.72917193414443        2.47433585546294       -0.95052986989435
H           -2.78148537625444        2.45363762125509        0.82232256902975
H           -0.76226403328133       -3.92046038649220        0.83190987316400
H           -0.72377591117004       -3.90151350704226       -0.96075541236413
H           -2.27839902883189       -3.44694432339408       -0.08880260194148
H            1.08418638209095       -2.83532730387986        0.01040190561202
