72
 energy: 2.035817026101 xtb: 6.6.1 (8d0f1dd)
N           -1.58102204673331        2.92370672764911        2.29845601662855
C           -1.62341894555873        2.13629688808161        1.32132662525097
C           -2.75706219417778        2.02637091941011        0.36068784016121
C           -3.35112821102480        0.62212736375082        0.39152356227517
C           -4.36434028613862        0.23886708733906       -0.49393799862379
C           -4.89239816072897       -1.04014526920801       -0.48416600260936
O           -5.87558857607358       -1.50013475601433       -1.31235233174917
C           -6.49361020292060       -0.59737961732411       -2.19048855010788
C           -4.40301317602767       -1.99804659308120        0.43029542933204
O           -4.98290129657583       -3.22710618039155        0.35908311030082
C           -4.60789759914269       -4.19099896720624        1.30683739698357
C           -3.41839181693754       -1.61296044507311        1.31902821051822
C           -2.90864151135639       -0.31943522202618        1.30273683565711
C           -1.96366431912473        2.35054206562314       -1.00432421282252
C           -1.18412620429007        1.23753419594106       -1.73426712351713
C            0.15257074955740        1.16031330266139       -1.11132057419557
N            0.70526796281252       -0.02488667731363       -0.60595394039254
C            2.05697038971774       -0.00561302358695       -0.17382161432859
C            2.98179853887204       -0.53359168871017       -1.28061329605404
C            4.40055611005676       -0.43360205517436       -0.84324396591565
C            5.11199085703388        0.73338111120254       -1.03233231154499
C            6.41861061409858        0.83678463955852       -0.58385444396161
C            7.02275022561353       -0.22294929673954        0.07097709341495
O            8.30505014051194       -0.23765863220285        0.53480926919080
C            9.10342700964756        0.89433753505541        0.31595919323842
C            6.28981031950604       -1.40831635488639        0.29565331293988
O            6.96185104350561       -2.39963045750529        0.94677791458498
C            6.30462686813764       -3.62122724237678        1.16541283305965
C            4.98888942636204       -1.49288919343531       -0.15678370840928
C           -0.02414276223259       -1.26002553257408       -0.65779417861675
C           -3.92272840173313        3.04091323785158        0.57378467873179
C           -4.55723160713759        2.91031176949806        1.95888035391209
C           -3.42756737054042        4.47112974845046        0.40137480677969
H           -4.74935051878263        0.95579150707499       -1.20001954685618
H           -6.94581389642085        0.24172952382122       -1.65183524536315
H           -7.27488284863389       -1.16672201662216       -2.69269891854713
H           -5.79044737571538       -0.21091457041414       -2.93571147559439
H           -4.79942388613438       -3.84943504058907        2.32852104076024
H           -5.22742811010571       -5.06090811101085        1.09591228298374
H           -3.55124111286508       -4.46377744246173        1.21181008571411
H           -3.02608838073078       -2.30894409453076        2.04168568578095
H           -2.15053755881957       -0.06033456996782        2.02475817520222
H           -2.73009535516183        2.65952470423286       -1.67556409248489
H           -1.27892314398140        3.20597693655723       -0.98535552493959
H           -1.74665054089023        0.31220828627942       -1.68695658252708
H           -1.09520957176037        1.47741334154517       -2.80759437263398
H           -0.76828710107539        1.55568857509095        0.93780931832985
H            0.81818151394098        1.97948046844509       -1.24506030034217
H            2.17521358249488       -0.60719121809880        0.73801281306603
H            2.31197681564098        1.02651436241773        0.06697377864323
H            2.80378183543967        0.06941603209885       -2.17164028949876
H            2.70941550607121       -1.56608666864286       -1.49260231720620
H            4.65292454203960        1.56892048870719       -1.53919096254863
H            6.95593533392720        1.75318417243192       -0.76502242296812
H            8.69585818956840        1.77893649487059        0.81667367933666
H            9.22221108903522        1.10533552340078       -0.75264046763152
H           10.07466915921077        0.65204441913210        0.74518955987546
H            7.03753693645094       -4.25500791909858        1.66233464349645
H            5.42772676597950       -3.50246572679046        1.81135900850408
H            5.99922596960958       -4.09232668726436        0.22403357310739
H            4.40519831989727       -2.38583037568874        0.00632468105970
H           -0.13496980072695       -1.62452037373204       -1.68836421740511
H           -1.02325823156857       -1.16318229571922       -0.21070403345502
H            0.49996557711343       -2.01231329778564       -0.06833644261968
H           -4.71483678828137        2.85745327858440       -0.16458450304586
H           -3.80716910241853        3.10917220564168        2.71673859372164
H           -4.97074126341679        1.91783563931983        2.11561454112967
H           -5.36694768639695        3.62878298977474        2.06291615439125
H           -2.62924726840124        4.65484516132411        1.11340465425812
H           -3.05221347330794        4.62941138762911       -0.60390120820733
H           -4.24181000267542        5.16775188346153        0.58386217154180
H           -0.69008672481663        2.92552598077552        2.78405220774921
