72
 energy: 29.744457098724 xtb: 6.6.1 (8d0f1dd)
N           -1.68912638370742        3.06428563894887        2.36066630210336
C           -1.72842388883813        2.15186813307882        1.49206692149994
C           -2.80094361284297        1.98456334928692        0.48333756659182
C           -3.38759353853426        0.58702978754086        0.46570156769154
C           -4.42550143429190        0.22483020676462       -0.40656072391400
C           -4.93501150266295       -1.06223656436649       -0.43592496110278
O           -5.93188551724150       -1.51009574776665       -1.25911075620376
C           -6.59030068376907       -0.58682173249473       -2.08422942965956
C           -4.40539168107474       -2.05526185200473        0.41718233014511
O           -4.97139955898320       -3.28748005699054        0.30871166832071
C           -4.55090986277600       -4.28056732726197        1.20483272994090
C           -3.40918065696643       -1.68618837315633        1.30068361449646
C           -2.92136539577046       -0.38676319903704        1.32873922453006
C           -1.70006134915375        2.35798457111017       -0.86487254920554
C           -1.11886729549028        1.30709997822674       -1.83099444077786
C            0.28391237403463        1.15618539689000       -1.39722008773436
N            0.74275833840740        0.02100409226300       -0.71805987807215
C            2.07940843185261        0.04328598502023       -0.20097246108844
C            3.02194519396161       -0.52018738428197       -1.27712973937420
C            4.43508299094697       -0.42962053999452       -0.83270991407089
C            5.14591026378547        0.73610624590481       -1.01714383627825
C            6.44964260158616        0.83061884140705       -0.56352456335333
C            7.04707109112055       -0.23750406856401        0.08709564985729
O            8.33366651139101       -0.26390502100953        0.54380238876782
C            9.13694106322529        0.86072388990757        0.31323724123235
C            6.30691120958091       -1.41668828258333        0.31530984439902
O            6.96893041133149       -2.41671907186749        0.96515622088229
C            6.29145337694545       -3.62774713649199        1.17989012469071
C            5.00759991124377       -1.49162467343957       -0.14038777130201
C           -0.01245140119070       -1.20766271828230       -0.70972614439436
C           -3.98109279949402        3.01283139035196        0.57181349375352
C           -4.61503913397920        3.05259627006098        1.96991881342850
C           -3.46363176507428        4.41138440715695        0.25474600992748
H           -4.83965568980310        0.95793031005413       -1.08005696835750
H           -7.04184897332077        0.22180801008619       -1.50001429609915
H           -7.37506180079410       -1.15050092088286       -2.58833061420238
H           -5.91518470008468       -0.15587369604210       -2.83093529969046
H           -4.71422813594271       -3.98398524582528        2.24509578352404
H           -5.16242644478269       -5.15225622787221        0.97931566465811
H           -3.49268226693035       -4.52866114792630        1.06761765160747
H           -2.98164386508659       -2.40067741302199        1.98262137284555
H           -2.15237654883972       -0.14667422712780        2.04368665342368
H           -2.38743328755878        2.91883063940209       -1.42956868823680
H           -0.90352659401112        3.11149917635731       -0.77499924957913
H           -1.70863368948779        0.40231238485467       -1.77066481939768
H           -1.18114195550892        1.59881682786277       -2.89569003096715
H           -0.88170416363166        1.48500276184444        1.23903607467633
H            0.97790351123075        1.93541993250424       -1.56977166839016
H            2.19141440050306       -0.53205413891441        0.73342789026775
H            2.31965460704236        1.07916098803684        0.02192602435874
H            2.84596618094635        0.06898798151487       -2.17743852737806
H            2.73434163774939       -1.55201996336100       -1.46726434948492
H            4.68473560172723        1.57402623818829       -1.51792906417466
H            6.98711213226789        1.74737800169744       -0.74029165283792
H            8.74138952019343        1.74923956787648        0.81676999065387
H            9.24300862408845        1.06996099078591       -0.75737231769707
H           10.11218639529088        0.61207033163222        0.73013146991096
H            7.01666499340549       -4.27317748939324        1.67232061106007
H            5.41602259101819       -3.49705573139220        1.82532413341732
H            5.97708971931529       -4.09079047857821        0.23681076641529
H            4.40800429280096       -2.37411342156066        0.02177520932903
H           -0.06000504926801       -1.63560888716382       -1.71970655173397
H           -1.03062111324067       -1.08520093322977       -0.30999533346802
H            0.44563613990572       -1.94138561651914       -0.04327149102043
H           -4.78930601504280        2.76315185939929       -0.12885422366397
H           -3.85594402841136        3.31712770634794        2.69872850401810
H           -5.05824838413439        2.09732011253795        2.24384986389551
H           -5.40669788800586        3.79804627938287        1.99337603385992
H           -2.65633521063888        4.63193878837264        0.94653386183631
H           -3.08240437391060        4.44716163979029       -0.76193839236682
H           -4.25910988626049        5.14424378001228        0.36334126267105
H           -0.79191211703967        3.07901364242841        2.83280299043157
