72
 energy: 70.987948690540 xtb: 6.6.1 (8d0f1dd)
N           -1.81663754885619        3.18557393848963        2.41841990978596
C           -1.92543842770822        2.15985395758160        1.65450783916161
C           -3.07577988195702        1.89489709745228        0.83866898622107
C           -3.48792943392981        0.54343199555581        0.61581533478954
C           -4.53125749501793        0.18611303943405       -0.27183012467430
C           -4.99944451335929       -1.10441348202322       -0.36746032344344
O           -6.01552636529637       -1.52560562238330       -1.18048439124828
C           -6.73194524825935       -0.57653746819599       -1.92139153631412
C           -4.41553952023710       -2.13702243810634        0.40256924596408
O           -4.94607009688184       -3.37686057628128        0.23418602749400
C           -4.46469590227936       -4.40736731996013        1.04873847187364
C           -3.38111588894887       -1.79341373598896        1.25936761787050
C           -2.92381976225267       -0.49810748882331        1.35777778090338
C           -0.92764998229049        2.36526261587100       -0.89540291715045
C           -0.97980967570619        1.37210323550148       -2.02541233716059
C            0.37765895496002        1.04680110646085       -1.62291040044027
N            0.70811520682318        0.12972945152575       -0.71600952190061
C            2.05903991687092        0.12852709114949       -0.22399932305302
C            3.02902921018381       -0.48192516293513       -1.25029119835909
C            4.44553610126565       -0.40371777284620       -0.78090886070298
C            5.18056912472589        0.74356491025865       -0.98345154114976
C            6.48950025534793        0.81974155975378       -0.53787937920029
C            7.07820966480625       -0.25828521807545        0.10561614319158
O            8.36391074376250       -0.30409962915831        0.55399961685299
C            9.18427132196303        0.80851170707490        0.30874501717347
C            6.31974158190638       -1.43008937286935        0.33383051175262
O            6.96406969662602       -2.43626442541590        0.98161547121191
C            6.27291131300908       -3.63963493139149        1.20107769245651
C            5.01220265064257       -1.48060283668388       -0.10664652955606
C           -0.01754328112687       -1.11958626372344       -0.72383287318619
C           -4.09465669664122        2.99216208851828        0.62913349530193
C           -4.70943572932807        3.29738508050807        1.98123359783099
C           -3.51526894890074        4.28781182390542        0.05381107951785
H           -4.98265846287059        0.93962707110607       -0.89638799606870
H           -7.18357228946334        0.18060266683236       -1.27332387988106
H           -7.52011132256729       -1.13412730121063       -2.42630671147459
H           -6.10294913929020       -0.08415885031189       -2.66922716167861
H           -4.58680980042741       -4.18088125576272        2.11167414397842
H           -5.06617181264756       -5.27761565004367        0.79591947536422
H           -3.40972278752176       -4.61867548051881        0.84770642717433
H           -2.91528298060522       -2.53459240787559        1.88217946786653
H           -2.15161474278211       -0.27373998308719        2.07220753981263
H           -1.82108901537887        2.89458417309875       -0.74215865643807
H           -0.20546889775646        3.14191205374014       -0.91202031020753
H           -1.73635600958158        0.61793616346318       -1.83486147566085
H           -1.13802888902482        1.75631669001397       -3.01600359527596
H           -1.11399674071172        1.42646283712786        1.60556911695243
H            1.12206786550841        1.71334524930376       -1.99348850734397
H            2.12596139622210       -0.43893147103856        0.71277457996249
H            2.34009405835467        1.15560380367190       -0.01474552940811
H            2.89952271479690        0.06862738518033       -2.18397933036252
H            2.74347527816841       -1.51971154873684       -1.41960700399184
H            4.73086900697074        1.58708537895674       -1.48545263879639
H            7.03266599021754        1.73388175253838       -0.71128616265190
H            8.81103048751814        1.70436614008766        0.81690729246238
H            9.27515504621362        1.01604989576507       -0.76339719098850
H           10.16160531986540        0.54367387339055        0.70965085896542
H            6.99136307886962       -4.29479318441884        1.68992099527988
H            5.40426847497729       -3.49348852498807        1.85060310394471
H            5.94879562606503       -4.09673607723399        0.25985188665360
H            4.40920135685834       -2.36158291075446        0.05032548913674
H            0.04626710974562       -1.56494834305809       -1.71986866014092
H           -1.05074515848724       -0.98120886588876       -0.42323900293566
H            0.40416579147905       -1.81303414482155        0.00155727461145
H           -4.90168297335177        2.64706916551339       -0.01758557424215
H           -3.93284880475435        3.63105805950132        2.65371760779320
H           -5.16791209376550        2.40496373601785        2.39016663992429
H           -5.47284489652454        4.05088341489556        1.86657234511726
H           -2.69291667072852        4.61259724393887        0.68997480992776
H           -3.16363907667318        4.11863497483724       -0.96323961432901
H           -4.27783941659029        5.06272073197917        0.03743131708891
H           -0.93189937307913        3.25367231672286        2.91076323577722
