72
 energy: 6.789040108735 xtb: 6.6.1 (8d0f1dd)
N           -1.87968914898672        3.37437999486740        2.22328443006851
C           -2.11721057261033        2.18510079080158        1.79267349187208
C           -3.28527923722417        1.85419941371029        1.05067793452437
C           -3.61202107056417        0.49022641104317        0.77435770108128
C           -4.65579895640376        0.13930578161074       -0.11932064479521
C           -5.07402958062180       -1.15878155664476       -0.29818768853667
O           -6.10737412242647       -1.54692833405633       -1.09879274889222
C           -6.89304792725910       -0.56849688500292       -1.73220566901455
C           -4.42287725214578       -2.22243089107001        0.37673224092456
O           -4.91367139775569       -3.46399138175413        0.14536578974032
C           -4.37129150640895       -4.54613031452044        0.85730993906822
C           -3.36359988261952       -1.89880768379056        1.21792047684600
C           -2.96283514871827       -0.59188109146326        1.40311373362015
C           -0.43540534147592        2.42211071365062       -1.15330711169453
C           -1.00170025269085        1.48488894211587       -2.18301465613407
C            0.36101471649846        1.22451301015560       -1.61635004936567
N            0.67212168708832        0.19158412621457       -0.69037899323676
C            2.03345355678064        0.19882310426249       -0.23827439544264
C            3.01976100036350       -0.44954021101085       -1.23252070031970
C            4.43307994467738       -0.38063626156526       -0.75138578089179
C            5.18827084241280        0.76057266888120       -0.93790151660905
C            6.50628077350644        0.81478047077636       -0.50991175211638
C            7.08323318226343       -0.27642261344147        0.11536601595832
O            8.37372872863830       -0.34775060171438        0.54430834505450
C            9.22420619256262        0.74335746264284        0.30076991023578
C            6.30675053071557       -1.43563825507029        0.34190851242179
O            6.95059372380700       -2.45715951043747        0.97050545613799
C            6.25024641553657       -3.65178864659043        1.20549501032221
C            4.99394345417535       -1.46733610335129       -0.08788782608718
C           -0.02920801583868       -1.05839222827025       -0.75825949693538
C           -4.22899680883213        2.98170331204442        0.70774166710689
C           -4.80268177231930        3.55885921594974        1.99996596577478
C           -3.58234398102637        4.10207613505737       -0.12670816913336
H           -5.14696464472834        0.91358387941324       -0.68516196888684
H           -7.34056833929024        0.12209679977061       -1.00893896042529
H           -7.68476657278483       -1.12275466340219       -2.23438236376597
H           -6.32432164772736       -0.00015321874439       -2.47723018053551
H           -4.44715124294908       -4.40927530871693        1.94082969822062
H           -4.96991322093611       -5.40581720386071        0.56402795351587
H           -3.32438319447955       -4.72129024074790        0.58926175667895
H           -2.84885609421643       -2.67443691260883        1.76318685670599
H           -2.16135761521457       -0.41052136859151        2.09954389198754
H           -1.08922211196259        2.49151889571098       -0.31254987900805
H            0.00046949359697        3.36000765807591       -1.43358176090517
H           -1.79356268737681        0.84708625266754       -1.81306127208593
H           -1.11408757877109        1.77296442767361       -3.21457605047754
H           -1.42317390254981        1.36127970097548        2.03417652625263
H            1.21367900252255        1.54443359938296       -2.26499638832751
H            2.06698803108844       -0.33704834058869        0.71445595141359
H            2.34186282557107        1.23182402726891       -0.04657789809758
H            2.93162937610107        0.07165812888383       -2.18807241850150
H            2.71194775532893       -1.48514436782084       -1.38104090723948
H            4.76005908999049        1.61480305647914       -1.44080785891901
H            7.07701160882448        1.71333756669175       -0.68254867630816
H            8.88753037047329        1.64817181336657        0.82176054740144
H            9.31282429828146        0.95702169571770       -0.77019391191447
H           10.19834969512039        0.44932185538041        0.68937079691304
H            6.96348670725619       -4.31453054582321        1.69388397431902
H            5.39241746138859       -3.49687371239341        1.86975429847973
H            5.91002822658783       -4.11123629828524        0.27246426987023
H            4.38676020208838       -2.34633291086620        0.06860405088851
H            0.07499346385732       -1.56167115057849       -1.73213058395072
H           -1.09124112335810       -0.88485372937282       -0.55916033818723
H            0.34475767714936       -1.70852164369739        0.03499826323125
H           -5.06474340118156        2.57796597280544        0.13786169718226
H           -4.00803248209522        3.98685357226762        2.60006414467089
H           -5.29096898875539        2.77149413774332        2.57232749341159
H           -5.52438266806066        4.32169761243221        1.73398924350421
H           -2.74222475533668        4.52310593664752        0.42263178412410
H           -3.24290982028793        3.70788827541535       -1.08667125081220
H           -4.30584524763682        4.90057007261214       -0.30749715269360
H           -1.03518815078680        3.47818187811982        2.78668313458627
