72
 energy: -2.233310441165 xtb: 6.6.1 (8d0f1dd)
N           -1.55758842160295        2.88331398870602        2.28484744866860
C           -1.60211549525465        2.13609471497120        1.27657433894059
C           -2.75201853697852        2.03458744878411        0.33079834930854
C           -3.34224323656150        0.62940364993373        0.37390866569163
C           -4.34892856277480        0.24096693909286       -0.51535309831966
C           -4.88143652359394       -1.03555970606170       -0.49608310473654
O           -5.86151416623618       -1.49769049229033       -1.32550158041144
C           -6.46900263537603       -0.60014097769736       -2.21673401916520
C           -4.40183607748918       -1.98409524599374        0.43342294170618
O           -4.98529675524208       -3.21226298411813        0.37197143744181
C           -4.62195262445998       -4.16851983160946        1.33237625837924
C           -3.41963007922871       -1.59508526970618        1.32314601451997
C           -2.90430493756314       -0.30364790913205        1.29620142844277
C           -2.02235923302294        2.34005068172458       -1.04995927628352
C           -1.20318400244863        1.22052094376337       -1.71593811115885
C            0.11529137323819        1.15380906743631       -1.05043516278589
N            0.68524300755873       -0.02989955183017       -0.58015480100779
C            2.04430766537686       -0.01414699815705       -0.16832517428890
C            2.96921992073225       -0.53561894600840       -1.28066894691417
C            4.38980893228288       -0.43353209035213       -0.84319965948682
C            5.10285991952712        0.73283854537710       -1.03561944764358
C            6.41044303250819        0.83831525860394       -0.58890057010951
C            7.01614945214545       -0.21920366562552        0.06735222247235
O            8.29740336270166       -0.23103778521666        0.53293769415645
C            9.09488927528100        0.90263890733923        0.31691208622707
C            6.28457224863512       -1.40603771336404        0.29135258306468
O            6.95921596482667       -2.39517618889215        0.94259954196422
C            6.30713063981167       -3.61933879217897        1.16209811795824
C            4.98283096393688       -1.49275223419472       -0.15935146729208
C           -0.03062666316462       -1.27119219353591       -0.64638800684907
C           -3.90894227227214        3.04943437597217        0.57580393377322
C           -4.54223833576757        2.87626181629139        1.95564985193921
C           -3.41863957411519        4.48523911816443        0.43873293442697
H           -4.72669706335844        0.95358994840271       -1.22949836307302
H           -6.92129026524174        0.24642181437400       -1.68984251446770
H           -7.24938841094383       -1.17088626440792       -2.71851772120227
H           -5.75901617187408       -0.22509088707944       -2.96142937262393
H           -4.82046644137379       -3.81589533179622        2.34912072936789
H           -5.24365337387482       -5.03778845736476        1.12484584451998
H           -3.56601388745249       -4.44754207684879        1.24796619008744
H           -3.03696434483894       -2.28602329586801        2.05619810049258
H           -2.14957400593709       -0.03892836577406        2.02007287628408
H           -2.80890035544375        2.58793705050121       -1.73036874166364
H           -1.37163888165973        3.21985428808577       -1.04405408957639
H           -1.76143244355017        0.29129068863743       -1.66954524402551
H           -1.07167449601158        1.44810359430818       -2.78674521560630
H           -0.74471078674552        1.57929221158169        0.86013541491864
H            0.77329212390395        1.98582259811267       -1.16524802062096
H            2.16488505766152       -0.62318105335029        0.73685450972812
H            2.30918360965930        1.01493119492116        0.07769803023339
H            2.79341922380823        0.06947343065664       -2.17085537837504
H            2.70209702153160       -1.56867632647607       -1.49831606402732
H            4.64501073924551        1.56771187126606       -1.54486176092760
H            6.94805830525462        1.75443786195672       -0.77153330660760
H            8.68467680616020        1.78648420947674        0.81680585073209
H            9.21698948287085        1.11397533455268       -0.75116169746616
H           10.06494874980038        0.66155486572904        0.74933508374369
H            7.04174977940849       -4.25030250890775        1.66017039422165
H            5.42986667983453       -3.50348173176031        1.80809823743221
H            6.00404448952414       -4.09231682516949        0.22108257655895
H            4.40391949671852       -2.38890237182608        0.00337279478865
H           -0.15470623934954       -1.62265123570626       -1.67957618030163
H           -1.02264605803415       -1.18316969908079       -0.18560629393469
H            0.51445753316185       -2.02462596162558       -0.07945366027449
H           -4.69750360505093        2.88311291206276       -0.17009751971396
H           -3.79470060969827        3.05737341007228        2.72041185781649
H           -4.94774970072363        1.87647893443880        2.08159242559915
H           -5.35639719788551        3.58663685815740        2.07980791444312
H           -2.62128515261949        4.66146901262649        1.15392543206776
H           -3.04798087788569        4.67519765771081       -0.56295402866761
H           -4.23742877979490        5.17135703462775        0.63988641182651
H           -0.66666088308142        2.88474993591443        2.77261727571581
