72
 energy: 0.075438832264 xtb: 6.6.1 (8d0f1dd)
N           -1.89840514231605        3.35706342964928        2.24462415752215
C           -2.14970029490438        2.16342480973166        1.84060441018191
C           -3.33606289276698        1.83657466282544        1.12205626352828
C           -3.65393170927117        0.47779536269338        0.81839365722274
C           -4.69528874112845        0.13134313929600       -0.08106780095658
C           -5.08832835296787       -1.16844791134203       -0.29404594525228
O           -6.10307664359216       -1.55860551232026       -1.11416516017103
C           -6.90559232265608       -0.57715474892722       -1.72109981840176
C           -4.42858103263538       -2.23007501417177        0.37724969552879
O           -4.91440050024852       -3.47146644468409        0.13640921361783
C           -4.36597758750732       -4.56713435276829        0.82625325346408
C           -3.36784441152032       -1.91650726472562        1.21642204693186
C           -2.99171059537779       -0.60714747922009        1.43246420459734
C           -0.41848665886695        2.45597600687547       -1.24644300836230
C           -1.02138791433499        1.44954162607923       -2.18078863868469
C            0.36404181971651        1.23857589359190       -1.65536857971484
N            0.63490962349864        0.26242661546774       -0.64050457809348
C            2.01698599139356        0.21909508144222       -0.22720474671740
C            2.99273633048145       -0.43965038676500       -1.23004397753376
C            4.40942868626299       -0.37398508441552       -0.74517696733520
C            5.17275958463765        0.76312308208522       -0.93706470950411
C            6.49370125336975        0.81542748713036       -0.51383316598409
C            7.07324145910828       -0.27323022350095        0.11241540332455
O            8.36598287120781       -0.34725413331327        0.54035190650590
C            9.22035496892805        0.74052894690026        0.29879708826984
C            6.29523363163371       -1.43088266859214        0.33889136521391
O            6.94322282895684       -2.45154763675515        0.96920794586954
C            6.24969594490010       -3.64937413700114        1.20366485161252
C            4.98054522117219       -1.46263742668295       -0.08819167016046
C           -0.02644816664559       -1.01621024246577       -0.77349035976926
C           -4.26026228136745        2.96813441744499        0.75050272622786
C           -4.84226880222998        3.60853729770612        2.01892779997434
C           -3.55275669276789        4.02765509335069       -0.10189852825269
H           -5.19374737845816        0.91021190112252       -0.63178926478460
H           -7.34594886629947        0.09904771839983       -0.98075965735319
H           -7.70109116476950       -1.12460634281659       -2.22485912429562
H           -6.34631107270377        0.00574509287689       -2.46072717561376
H           -4.43605083240145       -4.43854589178610        1.91137490012362
H           -4.96426586500913       -5.42681823163145        0.52738647036194
H           -3.32143027902050       -4.73997893340877        0.54702017796485
H           -2.83341604886331       -2.70213880769065        1.72832751533201
H           -2.18925848605881       -0.43277722418762        2.12916469985387
H           -0.79116448033938        2.46228741856912       -0.23401577039850
H           -0.13045859263861        3.42410728900997       -1.62556303214910
H           -1.82541428031406        0.83137628444382       -1.81404885017757
H           -1.11981814964166        1.71210105721613       -3.22483198675953
H           -1.44491501416319        1.34271232715411        2.01457536524933
H            1.16923675091247        1.40340857479016       -2.37157333767921
H            2.06534195094755       -0.32593533193544        0.72075785554804
H            2.33703062236887        1.24765117938749       -0.03958687120927
H            2.91546736196758        0.07994180582021       -2.18715563055464
H            2.69607530890947       -1.47908144568934       -1.37983824687843
H            4.74586286613347        1.62122956634845       -1.43483935934832
H            7.06508728727111        1.71328309692557       -0.69044811606096
H            8.88836197550030        1.64337355245952        0.82279217387287
H            9.31199364444074        0.95581378912151       -0.77145218406399
H           10.19147267438762        0.43712439692668        0.68785337413226
H            6.96700428690811       -4.30975400154035        1.68913559140393
H            5.39167580285253       -3.49881188946305        1.86804269338995
H            5.90936559978759       -4.11138206157061        0.27040844368388
H            4.38013588027747       -2.34575481452974        0.06921324411012
H            0.10630352626374       -1.48754522274765       -1.75662091081007
H           -1.09565191211982       -0.88361191571966       -0.59589838403563
H            0.35706862107149       -1.68808329244101       -0.00691035473929
H           -5.10458574828816        2.58569311401083        0.17369566271808
H           -4.04556856224310        4.05776933273442        2.60212561174175
H           -5.34871925915735        2.85923215370627        2.62475527687672
H           -5.56097523665318        4.37718645220984        1.74323890130865
H           -2.73064329921835        4.45916919524121        0.45952995348800
H           -3.16464969561596        3.58577111974667       -1.01749339369744
H           -4.25284385274621        4.81808797250709       -0.36400202471859
H           -1.01098636235606        3.46787956817451        2.72865375747285
