72
 energy: 1.397141662098 xtb: 6.6.1 (8d0f1dd)
N           -1.89297520526555        3.37634334222741        2.22762183805557
C           -2.15275928034411        2.17018284485021        1.85618241876192
C           -3.33685720083923        1.83613776322817        1.12928136007730
C           -3.64966475993032        0.47584130924420        0.81688265564244
C           -4.69092108049506        0.12702639390539       -0.08284432525258
C           -5.09114464745306       -1.17234651069319       -0.28892199044427
O           -6.11376933400377       -1.55937205165060       -1.10128258749659
C           -6.92128914593748       -0.57381953096565       -1.69776538827354
C           -4.42892976038418       -2.23430233595924        0.38172998979080
O           -4.91048353198602       -3.47783494174848        0.12844274828516
C           -4.35412792764038       -4.57620324847248        0.80636472747627
C           -3.36005544626333       -1.91952703405524        1.20868517549190
C           -2.98239857989575       -0.60920641274592        1.42301623538359
C           -0.40850667172681        2.44146818175467       -1.21215435360757
C           -0.99991397604947        1.46916200822536       -2.19259372066026
C            0.38624178015263        1.23800880142534       -1.64685413564860
N            0.64999966245374        0.23752299191860       -0.65756430510772
C            2.02373866349364        0.20866316111795       -0.23291927800694
C            3.00347695196349       -0.44488332712947       -1.23335569160894
C            4.41911502333754       -0.37606321732345       -0.74862744344218
C            5.18110819183920        0.76200283263507       -0.93854558330339
C            6.50104454709343        0.81341514723313       -0.51200297493910
C            7.07956684787927       -0.27499752032121        0.11436925906702
O            8.37372557651703       -0.35275875408170        0.53923139866836
C            9.22752011100256        0.73663200311375        0.29553030268259
C            6.30133162594280       -1.43259215056815        0.34069721799150
O            6.94800091983383       -2.45479176499015        0.97184368388453
C            6.24918136350314       -3.65092186456383        1.20472091301660
C            4.98765892547169       -1.46365113604782       -0.08810256161160
C           -0.02612416147192       -1.03094109011360       -0.77065873272511
C           -4.26357075781027        2.96331945897149        0.74175532333963
C           -4.83647155699175        3.61807154684290        2.00763187828902
C           -3.57477684955574        4.02930633241681       -0.12483321457977
H           -5.19484170437226        0.90624756440086       -0.62760721783605
H           -7.35986701743485        0.09621144524744       -0.94975000457507
H           -7.71772683459155       -1.12076491060238       -2.19986586089266
H           -6.36677738657732        0.01571152142819       -2.43618135496746
H           -4.41895264698760       -4.45913694791725        1.89366683947711
H           -4.94819112184733       -5.43752967250908        0.50347508702405
H           -3.31019815118432       -4.74237345148405        0.52074896185349
H           -2.82887187347721       -2.70379339889435        1.72373357697505
H           -2.18009516116908       -0.43360827418056        2.12003720778311
H           -0.88724773499213        2.47889669423585       -0.25038219814184
H           -0.06967853608504        3.40517415020115       -1.56222728471783
H           -1.80472546486099        0.84602456298513       -1.82701737599706
H           -1.11089169626383        1.74232856208872       -3.23583450580999
H           -1.46059584185337        1.35134063441440        2.04318372647528
H            1.18668655278285        1.47087788881074       -2.34196913687977
H            2.07727543626106       -0.32458828226204        0.72175955468938
H            2.33455470053536        1.24328223216895       -0.05192451111169
H            2.92074375678159        0.07612133377695       -2.18955018767484
H            2.70479319297952       -1.48374165701925       -1.38339454857862
H            4.75492231618660        1.62056896121276       -1.43539005255932
H            7.07258744412188        1.71181147784038       -0.68705750963640
H            8.89586843689662        1.63871923161912        0.82036356035117
H            9.31433681811815        0.94921340616342       -0.77551240727881
H           10.19851183459899        0.43151245674039        0.68184188183784
H            6.96440273907118       -4.31394159639545        1.68917012436369
H            5.39213567645612       -3.49616498031541        1.86927282642563
H            5.90718991939240       -4.11070002880999        0.27054968852649
H            4.38452584457301       -2.34503150845015        0.06870197864753
H            0.09557880110243       -1.51560033866685       -1.74899398311494
H           -1.08918009858143       -0.86781665291144       -0.58725666397937
H            0.34608510731814       -1.69693461059903        0.00860396954266
H           -5.11367553899461        2.57611225759012        0.17590950097364
H           -4.03749591435488        4.06730387070759        2.58755561517364
H           -5.33126230697069        2.86850604501338        2.61710356019002
H           -5.55968910046095        4.38129164523432        1.73219613428775
H           -2.74087102895982        4.45872665201764        0.42038269803669
H           -3.20403462152179        3.59747382334556       -1.05215864736733
H           -4.27807163369101        4.82588871346085       -0.36468964188460
H           -1.02268473556383        3.48192502405564        2.74571086885647
