72
 energy: -6.272724181365 xtb: 6.6.1 (8d0f1dd)
N           -1.51204645426170        2.80674527888496        2.25305911691728
C           -1.56566183590430        2.14555554220883        1.18674755988484
C           -2.74778308046840        2.05255245004077        0.27166677956585
C           -3.32512017813250        0.64393272084726        0.34178469007958
C           -4.31821578101144        0.24496441512268       -0.55605252917101
C           -4.85933663626745       -1.02636424533366       -0.51916347097786
O           -5.83277720872388       -1.49241196942592       -1.35168395320323
C           -6.42030643331697       -0.60653364434483       -2.26886373653330
C           -4.39945236351374       -1.95614861195611        0.43969799543862
O           -4.98990409933600       -3.18234185375597        0.39733480198095
C           -4.64985999815458       -4.12298217641519        1.38251842718154
C           -3.42219072033242       -1.55988891942092        1.33169865626556
C           -2.89486586846383       -0.27330201801995        1.28405952139054
C           -2.13834594756058        2.31312477072328       -1.14255090863055
C           -1.24358814114817        1.18974237794566       -1.68277258748225
C            0.03836878138499        1.13910141347283       -0.93916283270557
N            0.64834519666075       -0.04154556223183       -0.56162524259047
C            2.01522747333658       -0.02911922586381       -0.16143633413342
C            2.94536517335352       -0.53975444211965       -1.27979965951780
C            4.36854310781423       -0.43387090763500       -0.83995439167068
C            5.08418737079568        0.73134870972982       -1.03967317802428
C            6.39385124453176        0.84112768953392       -0.59742071427811
C            7.00303176833768       -0.21204538876155        0.06125504035394
O            8.28264228084139       -0.21741086257493        0.52945623739051
C            9.07758651953321        0.92009190764776        0.31835659899777
C            6.27448392751795       -1.40223503057281        0.28419728190392
O            6.95476326071183       -2.38721786238188        0.93473312336438
C            6.31270261401214       -3.61626855130001        1.15562255683912
C            4.97084780823715       -1.49341637947667       -0.16197218891778
C           -0.04451114334036       -1.29372996757190       -0.62786658947679
C           -3.88303225662011        3.06866672418917        0.58066569642014
C           -4.51130967474849        2.80859645941938        1.94811322921372
C           -3.40179697182947        4.51410245207526        0.51346225724236
H           -4.67980430172766        0.94812826942647       -1.28780063803219
H           -6.87326016379638        0.25432102374770       -1.76588463171064
H           -7.19900042405736       -1.18104315812192       -2.76856733379921
H           -5.69841713314597       -0.25432971920794       -3.01365308251631
H           -4.86202855742030       -3.74835925283046        2.38909239093756
H           -5.27572001020871       -4.99120361540330        1.18222928616163
H           -3.59571254011753       -4.41431238612587        1.31920299939732
H           -3.05901783751195       -2.24146643910721        2.08433596591638
H           -2.14606338500659        0.00127570421540        2.01095739084075
H           -2.95494718002910        2.44380803236149       -1.83854344526100
H           -1.55549421909556        3.23746056759307       -1.15714018204904
H           -1.79022650749665        0.25067717309567       -1.63650592061825
H           -1.02830070887063        1.39650673385904       -2.74107014307764
H           -0.70386922079643        1.62979291587991        0.70821167073044
H            0.68464852378744        1.99302989851300       -1.01142758619114
H            2.13496578711477       -0.65234133013968        0.73198461685275
H            2.30140317928840        0.99266907770603        0.09781070192796
H            2.77532265840180        0.06811420433416       -2.16978715512380
H            2.68736522565913       -1.57378661980129       -1.50860410310747
H            4.62882123762651        1.56362905616989       -1.55570710698342
H            6.93179567992458        1.75666109817232       -0.78356017231894
H            8.66229759171355        1.80279773974496        0.81630805469187
H            9.20617043545295        1.13202785801868       -0.74868609895620
H           10.04556926720966        0.68218528953190        0.75682993079401
H            7.05017929220495       -4.24183501025727        1.65629287888762
H            5.43464344962514       -3.50591991107760        1.80151946000759
H            6.01429034145024       -4.09295028458373        0.21530354246708
H            4.40246015773112       -2.39699526329264       -0.00279644646922
H           -0.19994114934911       -1.62339015000222       -1.66200611887476
H           -1.01935722012044       -1.22234620184598       -0.13413584924435
H            0.54461758785497       -2.04505876652631       -0.10614410925068
H           -4.66400621812936        2.93582684385684       -0.17849935128009
H           -3.76893428453824        2.95384727409409        2.72569713288940
H           -4.89863632502021        1.79565800075687        2.01226453548504
H           -5.33463309390903        3.50003959158402        2.11307677793444
H           -2.60650163684102        4.67583089754617        1.23478844496295
H           -3.04112518234503        4.76840808327863       -0.47875424405588
H           -4.22822478454360        5.17907342856631        0.75197007376218
H           -0.61943851588195        2.80383086212038        2.74224200970639
