72
 energy: 7.517810871563 xtb: 6.6.1 (8d0f1dd)
N           -1.60563159706054        2.96322119251289        2.31219115678746
C           -1.64698871805592        2.13890448539634        1.36566378335297
C           -2.76420090746340        2.01872193522260        0.39044606002344
C           -3.36005666359721        0.61489852269073        0.40939015104213
C           -4.37966542269933        0.23654713576096       -0.47234877704052
C           -4.90323189208629       -1.04483534846259       -0.47223429694917
O           -5.88967473314798       -1.50229180226522       -1.29914360903756
C           -6.51796101125449       -0.59431983168578       -2.16417761215382
C           -4.40383122192031       -2.01189081176041        0.42698836210304
O           -4.98021150356012       -3.24182496002477        0.34625559136163
C           -4.59357380793912       -4.21329023056099        1.28118232348000
C           -3.41659332484370       -1.63066724876335        1.31449222811991
C           -2.91255355836837       -0.33512455111363        1.30911487115595
C           -1.90417884811980        2.35868032909423       -0.96016689688523
C           -1.16680041724544        1.25520589946128       -1.75475711284092
C            0.18707793621810        1.16740171574297       -1.17659242541631
N            0.72024905110816       -0.01661178193735       -0.63784251108115
C            2.06608082951790        0.00448007478247       -0.18135802975328
C            2.99347107116892       -0.53128102486130       -1.28044787729988
C            4.41056172631937       -0.43337459918471       -0.84238397280947
C            5.12085809701160        0.73395061744437       -1.02889695892743
C            6.42662275571322        0.83521813196388       -0.57886135973296
C            7.02914612884459       -0.22669556669499        0.07466083798580
O            8.31248280378695       -0.24435666089793        0.53677513900697
C            9.11182952047905        0.88595260742722        0.31525048484044
C            6.29471350138662       -1.41061183743396        0.30012304105797
O            6.96432039069993       -2.40403909997599        0.95101874742582
C            6.30228731152617       -3.62318304751651        1.16885008263478
C            4.99443600394087       -1.49292017520588       -0.15361423186925
C           -0.01875204849648       -1.24837267409080       -0.67064643978472
C           -3.93722150779898        3.03323963004768        0.57229570760039
C           -4.57188461729594        2.94462186951455        1.96212593967689
C           -3.43692558825754        4.45706407849714        0.36452447425659
H           -4.77223828400455        0.95764725454931       -1.17019701029517
H           -6.97006549838200        0.23725515006813       -1.61391163862160
H           -7.30006793423840       -1.16216615622157       -2.66701726295759
H           -5.82154599119632       -0.19653477175639       -2.90971569825331
H           -4.77809303681147       -3.88300262861188        2.30775032574734
H           -5.21091158419156       -5.08381771471384        1.06672236901659
H           -3.53631518741173       -4.47975589798155        1.17551452561683
H           -3.01503087035949       -2.33149405401722        2.02692651645257
H           -2.15125056085758       -0.08150755689654        2.02925959877803
H           -2.64752169932019        2.72744011107990       -1.62041403549704
H           -1.18706083232214        3.18954964238835       -0.92819877277599
H           -1.73291654506606        0.33325567390241       -1.70519633099369
H           -1.11903316074499        1.50646268526287       -2.82889800592674
H           -0.79405963794756        1.53465355758711        1.01500075298578
H            0.86152037685473        1.97253772890066       -1.32753165386028
H            2.18261234746096       -0.58975175677515        0.73740826059311
H            2.31440109874528        1.03850962981819        0.05572035368193
H            2.81419245768246        0.06895554720624       -2.17287638823991
H            2.71654357099077       -1.56350195742415       -1.48650809727040
H            4.66077274966151        1.57018809945487       -1.53356736155775
H            6.96374597233116        1.75185214812705       -0.75866140964923
H            8.70693381158572        1.77128641739338        0.81684978770303
H            9.22733903072673        1.09669458119320       -0.75383921994179
H           10.08417006463717        0.64228825762244        0.74135106483699
H            7.03363998417432       -4.25960502115143        1.66453498821461
H            5.42581504817239       -3.50170678466384        1.81486007724887
H            5.99459867806380       -4.09248203433265        0.22715525694909
H            4.40625033718901       -2.38280517713970        0.00980218806045
H           -0.11556864871738       -1.62794664467427       -1.69733499172568
H           -1.02412152864433       -1.14407834217943       -0.23616130623543
H            0.48580829251661       -1.99766097943316       -0.05866000646935
H           -4.73297462432845        2.83261548325306       -0.15794883262195
H           -3.81928927337663        3.16079966970500        2.71283445534931
H           -4.99292151679369        1.96017315589974        2.14915151399702
H           -5.37717455051411        3.67053469694314        2.04629907203353
H           -2.63704703619152        4.64887493921291        1.07260338917041
H           -3.05797955443669        4.58435814915125       -0.64390842100468
H           -4.24649222199848        5.16362983245595        0.52867869379795
H           -0.71406088818759        2.96645835586277        2.79543833842231
