72
 energy: 76.525499191787 xtb: 6.6.1 (8d0f1dd)
N           -1.81024690270788        3.14594076289730        2.43919382719702
C           -1.88877341873127        2.16634662336143        1.62201285882067
C           -3.02239820400357        1.91169678378839        0.77268957905786
C           -3.46684486452498        0.54918328932264        0.58745748241007
C           -4.51120258599950        0.19270756809671       -0.29432521684560
C           -4.98890268261561       -1.09764555859657       -0.37771803384597
O           -6.00277538760353       -1.52437270201288       -1.19398444622350
C           -6.70935023741268       -0.57849213956955       -1.94859906590946
C           -4.41398679786620       -2.12467941452908        0.40413464264791
O           -4.95353755902436       -3.36457910047953        0.24880139296684
C           -4.47940782488292       -4.38836982783580        1.07622763261413
C           -3.38492430065979       -1.77650842988025        1.26507456254512
C           -2.92289099742670       -0.47979381997408        1.35296481255348
C           -1.12984779584116        2.37311226801091       -0.81817311917079
C           -0.98568150180432        1.34380661676201       -1.93871811925355
C            0.41201943928954        1.01353480916329       -1.68404161222327
N            0.71860400523457        0.12393968655025       -0.73273398770835
C            2.06545547232698        0.11667819183479       -0.22374644879544
C            3.03146655747954       -0.48924710494530       -1.25640882202791
C            4.44763365538066       -0.40938537114692       -0.78995693809050
C            5.17682019441381        0.74145336145637       -0.99000304729427
C            6.48402692342047        0.82094472097890       -0.54136921621378
C            7.07492211156425       -0.25588874359659        0.10327034747852
O            8.36221059818949       -0.29735974302242        0.55259891731120
C            9.17730929310204        0.81764030148191        0.30879532285687
C            6.31948184921862       -1.42911285448917        0.33252701369151
O            6.96679099382340       -2.43454175030847        0.98204093021857
C            6.27599173350498       -3.63784022398049        1.19857727225058
C            5.01368652810950       -1.48410768043674       -0.11195676972595
C           -0.01257186573920       -1.12837557829899       -0.72379475273283
C           -4.07465729035650        2.99713503129022        0.61609246316186
C           -4.69421603578835        3.25660733635547        1.97929449797583
C           -3.50736037245132        4.31419791174926        0.08714914043431
H           -4.95678962579837        0.94225233726474       -0.92802104401821
H           -7.16006645993743        0.18881512456392       -1.31093469030447
H           -7.49750964360124       -1.13642090349937       -2.45370879169632
H           -6.07201389951958       -0.09602907593439       -2.69625717621667
H           -4.60718253118168       -4.14901284619660        2.13577589023428
H           -5.08224627182424       -5.26001840862862        0.82945570547344
H           -3.42258643887122       -4.60536772022881        0.88572850649572
H           -2.92683859697015       -2.51288670421819        1.89923884112838
H           -2.15321793786952       -0.25181219267413        2.06863959072287
H           -1.92375726195958        3.02646197120003       -0.98437957275613
H           -0.31795892652226        3.07813491109053       -0.77610002030782
H           -1.72322280965885        0.55820287010501       -1.82962734593376
H           -1.17192227978079        1.75942654037370       -2.93024007377074
H           -1.07387704922920        1.44052229007416        1.54542154134078
H            1.10930075331520        1.76886249386012       -1.94033201041944
H            2.13701697704092       -0.45345245912835        0.71270866389899
H            2.34185189568480        1.14323994639999       -0.00807843156401
H            2.89128288149296        0.06875621697746       -2.18380366504435
H            2.74661158596243       -1.52575192001255       -1.42754794491935
H            4.72402519841558        1.58352081053825       -1.49164592066385
H            7.02489381329714        1.73654064559671       -0.71501092144686
H            8.79952937949007        1.71182007328506        0.81615126075565
H            9.26960877100209        1.02487934017076       -0.76335226918562
H           10.15469939215844        0.55617993342096        0.71192867190886
H            6.99509220236895       -4.29246745107097        1.68688074191105
H            5.40562861966464       -3.49383576365164        1.84646247187824
H            5.95307841653555       -4.09454082938870        0.25599427431977
H            4.40979230073760       -2.36441690685645        0.04598182845739
H            0.02899332900043       -1.57631920265997       -1.72021589660182
H           -1.04266403293226       -0.99587327011816       -0.40435005730592
H            0.41402878732274       -1.83054617355782       -0.00770425475475
H           -4.88266414154874        2.66738492282211       -0.03726089006574
H           -3.91999334890216        3.57775266776648        2.66253636540340
H           -5.15005644722011        2.35138376957531        2.35958959060558
H           -5.46439624302768        4.01019217212795        1.89246865424979
H           -2.68353119651150        4.61571120772743        0.73092968408976
H           -3.15966683538556        4.18186957236735       -0.93410045352000
H           -4.27601181470169        5.07978826467113        0.09597483980591
H           -0.90871342506720        3.22722765978111        2.89611118392404
