72
 energy: 51.619810221328 xtb: 6.6.1 (8d0f1dd)
N           -1.75130724676287        3.13191365026714        2.39720871003442
C           -1.79252494429994        2.19120618761872        1.54577756688975
C           -2.88095173580427        1.96128965237103        0.59964935008355
C           -3.41590213572390        0.57398495820141        0.51401558841920
C           -4.45971396368991        0.21602564335493       -0.36059821694509
C           -4.95565370024022       -1.07429948305943       -0.41191535627518
O           -5.96021129866039       -1.51565189988195       -1.23307984998037
C           -6.63828230866854       -0.58268329790649       -2.03039740275931
C           -4.40656929994068       -2.08369327306893        0.40991404323556
O           -4.96612390554409       -3.31874196653915        0.28401246873696
C           -4.52258078285267       -4.32428405598580        1.15350226876165
C           -3.40061087417753       -1.72330610754383        1.28839962783435
C           -2.92447619730399       -0.42370675634249        1.34091386568119
C           -1.49335336306571        2.36939462612071       -0.83964827231498
C           -1.06182555031543        1.32214577053714       -1.86544775484682
C            0.35185584981135        1.10413245773240       -1.52268594685564
N            0.74581663100648        0.05559313571681       -0.74032166248647
C            2.08007088094777        0.07111247233981       -0.21238420044957
C            3.03438507671715       -0.51097741007382       -1.27227769288681
C            4.44554844490807       -0.42417734043704       -0.81766469272426
C            5.16050807746702        0.73719428512683       -1.00741603334949
C            6.46452361904501        0.82645860178932       -0.55398940262055
C            7.05849876814326       -0.24583127724587        0.09421050695375
O            8.34619368414267       -0.27774533498168        0.54734968017529
C            9.15327790316528        0.84338406294348        0.31161683440107
C            6.31323925962567       -1.42298725074743        0.32334117162727
O            6.97128058983161       -2.42511312773763        0.97309465359487
C            6.28591269331763       -3.63172409520213        1.18773350825806
C            5.01170804077096       -1.49135818010679       -0.12874045662630
C           -0.00988077677055       -1.17715305960838       -0.72102276782499
C           -4.01968250534375        3.01202082800247        0.58833851794456
C           -4.65023876377906        3.13235040251465        1.98005749031965
C           -3.48375118907651        4.38061166883764        0.18351709073642
H           -4.88682266720466        0.95671723767317       -1.01799775664948
H           -7.08929725705075        0.21033029466127       -1.42431112147630
H           -7.42469779715189       -1.14364915647182       -2.53544522337364
H           -5.97789299542742       -0.12989743207451       -2.77756135276109
H           -4.67118708018103       -4.05058487444993        2.20237662732810
H           -5.12999610804616       -5.19683038852128        0.92046611707233
H           -3.46405072930132       -4.55969347272917        0.99518695321304
H           -2.95916487439084       -2.44673384519878        1.95137221478972
H           -2.15219077530572       -0.18950625593712        2.05299739159563
H           -2.19107518948654        3.00624792368685       -1.28548195238493
H           -0.67565018723804        3.07823368844629       -0.71826704681221
H           -1.71336299263662        0.45782439815571       -1.80565379858997
H           -1.18243419751679        1.64965451780543       -2.91988487926513
H           -0.95783750428961        1.47187790799046        1.37821184631745
H            1.04235170884661        1.88791197231732       -1.73009449725820
H            2.17882418570967       -0.49509670645339        0.72719450904917
H            2.33394250263207        1.10331005231655        0.01034361765932
H            2.86608391334266        0.06799664913335       -2.18084271529886
H            2.74349509014502       -1.54271540398870       -1.45379333552306
H            4.70046658882760        1.57665242549527       -1.50686268942956
H            7.00263990382308        1.74310651016396       -0.72944881037141
H            8.76421117232866        1.73392078121880        0.81660400806092
H            9.25359693506935        1.05193473227838       -0.75973228715186
H           10.12995817155102        0.59068074008790        0.72284174407520
H            7.00800821754561       -4.28162171780958        1.67817343093961
H            5.41183088398442       -3.49532502044123        1.83345668109089
H            5.96744412123187       -4.09165846425026        0.24438053799628
H            4.40758517015813       -2.37031822811369        0.03131366782173
H           -0.01807705112290       -1.62271976445933       -1.72217042985674
H           -1.03530945697767       -1.04740161351057       -0.35355641547603
H            0.42675203126889       -1.89876498584548       -0.02905254676142
H           -4.83031722125750        2.72626772947706       -0.09687038970729
H           -3.88171587344347        3.42197226821569        2.68895285592130
H           -5.10154776566744        2.19516424249609        2.30159805748409
H           -5.43229194881552        3.88509074636783        1.96098499689823
H           -2.66829657889326        4.62285260621574        0.85935991710780
H           -3.11047812018150        4.35114125241659       -0.84023553607194
H           -4.26952765121560        5.12864239587224        0.25419522394665
H           -0.84601489479723        3.15097703466016        2.85658846473922
