72
 energy: 14.450953555530 xtb: 6.6.1 (8d0f1dd)
N           -1.63125720498380        2.99990900090831        2.32557259455349
C           -1.67246557258798        2.14328766091062        1.40695676299348
C           -2.77537975523983        2.01018007158558        0.41904163000463
C           -3.36954534642174        0.60671491870261        0.42787529064431
C           -4.39503396778092        0.23319472550104       -0.45055708549888
C           -4.91386329054197       -1.05035002570348       -0.46015946112617
O           -5.90356191953954       -1.50491429426621       -1.28597490801004
C           -6.54206900404173       -0.59168226770753       -2.13766360684920
C           -4.40445837649246       -2.02630506804275        0.42385151758849
O           -4.97719644565817       -3.25703012773741        0.33362296388938
C           -4.57924577600387       -4.23596271821797        1.25569607065171
C           -3.41464193981217       -1.64881794644477        1.31024913114030
C           -2.91619217751817       -0.35149521977617        1.31575744992436
C           -1.83832064199393        2.35953655639412       -0.92249636831870
C           -1.14874237327891        1.27112981167706       -1.77949010089689
C            0.22129540685343        1.16996667665390       -1.24840072922201
N            0.73325777688952       -0.00798575732398       -0.67213303667211
C            2.07378921515438        0.01580499075591       -0.18782534277683
C            3.00455654173289       -0.52801805844728       -1.28005478436361
C            4.42012905328793       -0.43272073135821       -0.84095818607756
C            5.12962789386385        0.73465551006345       -1.02540028392592
C            6.43434599457558        0.83391052789705       -0.57338824396972
C            7.03504771339342       -0.23006756771872        0.07929243635985
O            8.31951534941746       -0.25058605349061        0.53961420901431
C            9.12014235490092        0.87773803887714        0.31475945699803
C            6.29883747318718       -1.41242053677238        0.30555601302775
O            6.96562398591570       -2.40819809755521        0.95620208245460
C            6.29783547400667       -3.62445442191171        1.17241124947968
C            4.99927457472815       -1.49252614318024       -0.14959000054368
C           -0.01440660317288       -1.23615940551185       -0.68501548725914
C           -3.95189163421301        3.02606759760879        0.57121791132293
C           -4.58618163377261        2.98035147907842        1.96525924897049
C           -3.44531644978113        4.44220287925928        0.32774960763191
H           -4.79445365569468        0.95821994744469       -1.14072693175582
H           -6.99397414355838        0.23228663692006       -1.57583795922164
H           -7.32512872848181       -1.15807002217694       -2.64088879000621
H           -5.85272646367989       -0.18267318294872       -2.88368122794726
H           -4.75678447141197       -3.91692487835450        2.28695693244381
H           -5.19455996219038       -5.10697251987279        1.03759803376547
H           -3.52154458881214       -4.49633360022201        1.13954200013191
H           -3.00393747872990       -2.35444638625583        2.01233983642034
H           -2.15177204926815       -0.10323076335577        2.03398026461830
H           -2.56261263975516        2.78509829461610       -1.56069724420570
H           -1.09435898310586        3.16935795977485       -0.87688534433744
H           -1.72126212502109        0.35418912039385       -1.72697373200391
H           -1.14233726932925        1.53722344939991       -2.85140570757718
H           -0.82174726166923        1.51551896901822        1.08912737393326
H            0.90443563689882        1.96238284992347       -1.40850106802634
H            2.18786128263706       -0.57222877423593        0.73609184701627
H            2.31601465740255        1.05141671977935        0.04464349824610
H            2.82519986331014        0.06911969692812       -2.17453351562181
H            2.72292291649205       -1.55980169253776       -1.48073794854088
H            4.66887759418849        1.57129080941878       -1.52871220886322
H            6.97143897558677        1.75065560944196       -0.75199823172006
H            8.71849624824750        1.76424010233030        0.81692802731952
H            9.23233350218203        1.08779157737466       -0.75491257416503
H           10.09358415059251        0.63250827901466        0.73759797469478
H            7.02682443088681       -4.26433298261946        1.66693976143737
H            5.42153061392332       -3.49976722585425        1.81798994929167
H            5.98791633816907       -4.09116949398508        0.22997297398027
H            4.40684386319911       -2.37966791621723        0.01353814004487
H           -0.09717212721288       -1.63267178573096       -1.70688130976661
H           -1.02505814863393       -1.12395004078064       -0.26115575452077
H            0.47277405458131       -1.97890669133531       -0.04969343825098
H           -4.75147383323778        2.80873243640863       -0.14965972567892
H           -3.83110741333411        3.21308082841952        2.70870697723781
H           -5.01509853573857        2.00498394022994        2.18234341192616
H           -5.38660282415072        3.71370478101859        2.02935923121999
H           -2.64341193019296        4.64246100713173        1.03130970241648
H           -3.06390703627160        4.53827673539613       -0.68358103170246
H           -4.25007657953247        5.15820895746703        0.47356728801636
H           -0.73870667515584        3.00478899551472        2.80631339444442
