72
 energy: -5.075849618438 xtb: 6.6.1 (8d0f1dd)
N           -1.53335497714395        2.84514109652512        2.26851944900524
C           -1.58225822114258        2.14017698538356        1.23026075061961
C           -2.74917360403862        2.04350053799940        0.30104928888971
C           -3.33413987606037        0.63710236151995        0.35816281758469
C           -4.33371787481053        0.24330910417861       -0.53559620253680
C           -4.87047146797658       -1.03074003594279       -0.50758151065347
O           -5.84689137860543       -1.49515095000774       -1.33882681831547
C           -6.44460207997884       -0.60348423266906       -2.24305133283597
C           -4.40095352098379       -1.96995135470955        0.43679057568122
O           -4.98766719851603       -3.19729091181751        0.38453525329132
C           -4.63584826185285       -4.14588242802819        1.35728552304582
C           -3.42157151995539       -1.57720005685101        1.32797455869702
C           -2.90052470849200       -0.28797455425096        1.29094235949806
C           -2.08057831169118        2.32706118533025       -1.09637773630331
C           -1.22282035931747        1.20480443935147       -1.69925112919405
C            0.07753877070152        1.14696266514276       -0.99354062365572
N            0.66582279052641       -0.03572395492400       -0.56542786866493
C            2.02992677357255       -0.02216928913261       -0.16476308751439
C            2.95697959258580       -0.53824732509913       -1.28053580419354
C            4.37902208143360       -0.43420355362450       -0.84205624668542
C            5.09332670295351        0.73172325699458       -1.03777985012343
C            6.40178641654724        0.83972539887466       -0.59275451984189
C            7.00941467755836       -0.21544173302549        0.06479657829343
O            8.28986004822252       -0.22378865151845        0.53165356923814
C            9.08602179607491        0.91179425556586        0.31769011400762
C            6.27946192857477       -1.40408284034876        0.28802471999310
O            6.95686084100994       -2.39118380794985        0.93891863544056
C            6.30952237634584       -3.61777926123597        1.15868369539207
C            4.97688813328929       -1.49330719386546       -0.16081805547419
C           -0.03751489353573       -1.28261157730865       -0.63643813839823
C           -3.89610059499303        3.05881733345388        0.57808581695552
C           -4.52677580551364        2.84257357161645        1.95230190955485
C           -3.41054017046931        4.49959264395099        0.47641961645606
H           -4.70259808879822        0.95105376708725       -1.25914444288927
H           -6.89734891316745        0.25018925054885       -1.72801200026605
H           -7.22406583009469       -1.17625406900406       -2.74375222979771
H           -5.72867540433890       -0.23971161440210       -2.98781684670988
H           -4.84133106239102       -3.78229194574903        2.36898793378874
H           -5.25942941242829       -5.01476051986047        1.15326630318071
H           -3.58067015472076       -4.43080682416133        1.28344242490119
H           -3.04826993921501       -2.26372003574348        2.07050195278097
H           -2.14760171481952       -0.01897249858028        2.01541298716301
H           -2.88414805970841        2.51527925971935       -1.78439585114838
H           -1.46313702639339        3.22945392795163       -1.10091880245651
H           -1.77554978961299        0.27097493489801       -1.65298048999519
H           -1.04953546987589        1.42217017507360       -2.76492485573997
H           -0.72343680782103        1.60387954038895        0.78237846475065
H            0.72940527888192        1.99046877645266       -1.08714887242469
H            2.15033569627399       -0.63861330122191        0.73420956331115
H            2.30522043206382        1.00333306300517        0.08767099649452
H            2.78433156889944        0.06844156883970       -2.17046588034906
H            2.69455702580195       -1.57176018019761       -1.50382161628472
H            4.63670970535061        1.56531402207913       -1.55037745409378
H            6.93941010005619        1.75572129065601       -0.77687989094400
H            8.67336348003797        1.79511280562273        0.81657332158396
H            9.21104809767906        1.12325552374374       -0.74994803015841
H           10.05520319501286        0.67243527375986        0.75288077957568
H            7.04534890823449       -4.24642655975877        1.65794463691398
H            5.43175285871416       -3.50464671085060        1.80449168738658
H            6.00874934595938       -4.09214661010401        0.21778394821064
H            4.40347128387890       -2.39333652536805        0.00020298092384
H           -0.17675995963714       -1.62329862332931       -1.67048452302266
H           -1.02099117754904       -1.20326542215427       -0.15909505377570
H            0.53062336300145       -2.03461830658125       -0.09203324604663
H           -4.68121463615522        2.90947002320914       -0.17449861743595
H           -3.78105686904689        3.00608154463899        2.72281466989723
H           -4.92302873265398        1.83578379370706        2.04756831490851
H           -5.34555414562739        3.54377422873619        2.09763187814766
H           -2.61416842988442        4.66776816179379        1.19484950795716
H           -3.04484080850355        4.72179781885677       -0.52088225912545
H           -4.23329807487938        5.17516210915294        0.69659819016622
H           -0.64210422500459        2.84397572512307        2.75800366720509
