72
 energy: 27.419310004900 xtb: 6.6.1 (8d0f1dd)
N           -1.84651809919712        3.31385756887862        2.30868070785048
C           -2.03821458421815        2.16621373628605        1.77385657913100
C           -3.18997009890177        1.87067893998866        0.96859547939192
C           -3.55419459473342        0.51399754917799        0.70740003285881
C           -4.59843240116185        0.16095960051188       -0.18344780685584
C           -5.03856762289223       -1.13301923453048       -0.32656849908130
O           -6.06480360490215       -1.53155213607593       -1.12612458915519
C           -6.82376893544090       -0.56914904916987       -1.81267502982595
C           -4.41250727751123       -2.18924589876527        0.38295892945502
O           -4.92242065571912       -3.42393980786605        0.18104884217833
C           -4.41011754158609       -4.48629406202819        0.93982339935882
C           -3.36856010871066       -1.85575983143816        1.23552136517704
C           -2.93860378980338       -0.55511078921349        1.37978654940217
C           -0.55340349970118        2.36288470133793       -1.04081395437080
C           -0.99253044023004        1.44146989514081       -2.14847312213043
C            0.32487863958593        1.13124635091219       -1.62747305452945
N            0.70356707896358        0.15468244807983       -0.72195505346725
C            2.05022009515867        0.18108474974717       -0.23515491776358
C            3.02109305794761       -0.45814204928611       -1.24091848187701
C            4.43246485582823       -0.38670753598519       -0.75552348475903
C            5.18830627690503        0.75165694057121       -0.95476453431841
C            6.50353122934150        0.81424474780667       -0.52004547495102
C            7.08449774272014       -0.27010660540046        0.11473521130874
O            8.37594180958639       -0.33166184482497        0.54913227450062
C            9.21075142790329        0.77227179928923        0.30580771455090
C            6.31294793558501       -1.43232253737814        0.34173029302070
O            6.95671500941428       -2.45159227198054        0.97913143295575
C            6.25802732574952       -3.64713582504845        1.20932421182352
C            5.00015944782286       -1.46961388891060       -0.08933119419030
C           -0.02172782231731       -1.07616106451052       -0.73230110643757
C           -4.16492963953984        2.98414277089662        0.67159706776429
C           -4.75522383909194        3.44826292522607        1.99475169336374
C           -3.56236795957565        4.19507068432431       -0.06688025525147
H           -5.07646552509390        0.92529287459069       -0.77512204887138
H           -7.27448534561000        0.14942220678668       -1.12149254139263
H           -7.61257962838823       -1.12946558360652       -2.31380793298583
H           -6.23203946217982       -0.03267977503883       -2.56260009757504
H           -4.50613137728037       -4.31358660230593        2.01696777451535
H           -5.01168434004960       -5.34837008753735        0.66172134096422
H           -3.36032314769118       -4.67461968098697        0.69829151906731
H           -2.87334329692729       -2.61574345289679        1.81485469365340
H           -2.15079942531967       -0.35579679065789        2.08593583248397
H           -1.39064325888647        2.58368189804725       -0.43074274315988
H            0.00150331424798        3.25356311253717       -1.20350834390365
H           -1.76869370089334        0.76596812457735       -1.82896841237262
H           -1.10635571068874        1.79916730740594       -3.14313718174141
H           -1.29119542070893        1.36192866695681        1.86885081153466
H            1.14359380824529        1.51200698326249       -2.25690139545781
H            2.08821627167818       -0.37979253186210        0.70614826123910
H            2.34893687965080        1.20616183038822       -0.03350132146089
H            2.92647637553853        0.07010460444239       -2.18973023503515
H            2.72240566427841       -1.49598090839059       -1.39461791331006
H            4.75448403729809        1.60081175001972       -1.46131199061608
H            7.05917423954615        1.72202640221552       -0.69332112999795
H            8.85565176725708        1.67276213728636        0.82116388835770
H            9.29688621685609        0.98227534995041       -0.76573340067862
H           10.18553135968679        0.49074798845858        0.69982523738160
H            6.97324776403992       -4.30702794142477        1.69881123376013
H            5.39652421707249       -3.49277839296774        1.86633896704309
H            5.92559314646113       -4.10383513646235        0.27184906787453
H            4.39894478674172       -2.35211840151750        0.06576260923166
H            0.06952958391722       -1.55450347028925       -1.71498719018855
H           -1.07158308035662       -0.91572830765302       -0.49783477143463
H            0.38258963117103       -1.73775636533784        0.02485039344383
H           -4.98440344436096        2.58860194390749        0.07363592103262
H           -3.96852551827805        3.84070572834389        2.62827597411743
H           -5.23314733061535        2.61312232818703        2.50691317507382
H           -5.49543897513148        4.20371119222315        1.77749551630398
H           -2.72805167539416        4.58366342119251        0.51936910391941
H           -3.23946230997485        3.89882751822235       -1.06830079711678
H           -4.30472238011351        4.99159832816684       -0.17076284074385
H           -1.01119166622112        3.38232743146587        2.88217614780130
