  72
        -99.26913238
 N         -1.7944206136        2.8149328520        2.5216597537
 C         -1.7843302193        2.1383149353        1.4720902695
 C         -2.9287932360        2.0509458848        0.4989024876
 C         -3.4408985183        0.6208512605        0.4419972983
 C         -4.3126201812        0.2296644076       -0.5687316504
 C         -4.8089405839       -1.0698105085       -0.6292184133
 O         -5.6492276783       -1.5363547916       -1.5841197564
 C         -6.3334246129       -0.7849466961       -2.4086433738
 C         -4.4228599071       -2.0253096522        0.3496865818
 O         -4.9497454114       -3.2543396617        0.2022884742
 C         -4.7069649709       -4.2301900374        1.1911732170
 C         -3.5682494152       -1.6187169665        1.3629818619
 C         -3.0891894730       -0.3159483319        1.4071690826
 C         -2.3366422566        2.4721928735       -0.8719840745
 C         -1.4340095545        1.4168990605       -1.5359636927
 C         -0.1195260617        1.2498636731       -0.8760738787
 N          0.4722754882        0.0862938376       -0.6246428243
 C          1.8598808573        0.0386740774       -0.2281729046
 C          2.7738736802       -0.3456061131       -1.4082323950
 C          4.2160988073       -0.2573267438       -0.9945960100
 C          4.9168639828        0.9294234943       -1.1348905130
 C          6.2413935288        1.0233066167       -0.7372301480
 C          6.8916137439       -0.0703478332       -0.1838310600
 O          8.1709377963       -0.0948746400        0.2325713891
 C          8.9576454494        1.0673191510        0.1050914556
 C          6.1787987325       -1.2918751541       -0.0304154312
 O          6.8858693964       -2.3028267616        0.5124083334
 C          6.2774705049       -3.5617400425        0.6735150282
 C          4.8548845750       -1.3612673527       -0.4346788332
 C         -0.1939749541       -1.1747473287       -0.8433735664
 C         -4.1291293611        2.9748046500        0.8644984499
 C         -4.7636904686        2.5668908272        2.1920799135
 C         -3.7581475241        4.4546048025        0.9040624585
 H         -4.6059603694        0.9371854148       -1.3273691984
 H         -6.3515347644        0.2888015076       -2.3574901205
 H         -8.9376039975        0.4065196524       -2.2922647897
 H         -6.9280058785       -1.3187948210       -3.1267556553
 H         -5.0563987415       -3.8984950786        2.1726333104
 H         -5.2754039851       -5.1050905575        0.8820267519
 H         -3.6454288604       -4.4890676017        1.2465514440
 H         -3.2767756060       -2.3079467674        2.1381613566
 H         -2.4484882924       -0.0292595418        2.2260085569
 H         -3.1554623511        2.6946063053       -1.5553119784
 H         -1.7660786726        3.3913089481       -0.7347676741
 H         -1.9671650244        0.4709144094       -1.6113470116
 H         -1.2407015513        1.7710072668       -2.5573173721
 H         -0.9045035458        1.5690730180        1.1123219992
 H          0.4769288086        2.1365476883       -0.7210261829
 H          1.9797034716       -0.6892869272        0.5787943503
 H          2.1619024576        1.0181961055        0.1476101927
 H          2.5835285384        0.3418637336       -2.2342669753
 H          2.5390117222       -1.3577524704       -1.7395034526
 H          4.4365985477        1.7921043108       -1.5711805998
 H          6.7630030827        1.9568730125       -0.8691898115
 H          8.5403990230        1.8988574434        0.6810777551
 H          9.0648040514        1.3649605716       -0.9423385118
 H          9.9341320345        0.8043379935        0.5070719741
 H          7.0445590894       -4.2042333153        1.1014013653
 H          5.4255365686       -3.5111057479        1.3593137057
 H          5.9524211775       -3.9763183441       -0.2858073156
 H          4.3081401926       -2.2854523701       -0.3307781398
 H         -0.3360242859       -1.3691836590       -1.9088570653
 H         -1.1688857751       -1.1812700107       -0.3510897755
 H          0.4096088097       -1.9753540432       -0.4232944241
 H         -4.8784040500        2.8333376926        0.0767528466
 H         -4.0558633862        2.7088452701        3.0024262455
 H         -5.0806055804        1.5267860043        2.1756582555
 H         -5.6363674853        3.1856071820        2.3828765225
 H         -2.9785971462        4.6284516664        1.6391932038
 H         -3.4267641700        4.8169646670       -0.0653610619
 H         -4.6322039968        5.0320077554        1.1930772119
 H         -0.9489868917        2.8298830400        3.0838118716
