  72
        -99.24930830
 N         -1.7525405840        2.7325829220        2.4870733540
 C         -1.7254948166        2.1756789036        1.3719799912
 C         -2.9011800450        2.0598739724        0.4404253989
 C         -3.4037265792        0.6253113700        0.4134898087
 C         -4.3419026942        0.2411711295       -0.5467421367
 C         -4.8538284199       -1.0454472277       -0.5846921575
 O         -5.7620222513       -1.4963128961       -1.4715463680
 C         -6.3359806034       -0.5976901159       -2.3922269909
 C         -4.4142939507       -2.0019780800        0.3721664299
 O         -4.9673670427       -3.2243560165        0.2633154888
 C         -4.6683347819       -4.2030426676        1.2314515794
 C         -3.4806327227       -1.6139141007        1.3207782845
 C         -2.9825589003       -0.3170296608        1.3398792969
 C         -2.3690791910        2.4679895250       -0.9578141365
 C         -1.4949157568        1.3976811516       -1.6379216925
 C         -0.1629145974        1.2372735767       -1.0186632923
 N          0.4165583036        0.1004648662       -0.7166495801
 C          1.7952775197        0.0803010178       -0.2754386158
 C          2.7128955369       -0.6061773196       -1.2984836850
 C          4.1464566861       -0.4291599456       -0.8892354215
 C          4.7735236498        0.7853904377       -0.9120790940
 C          6.0619023153        1.0424982974       -0.5639287623
 C          6.8444185127       -0.0314497259       -0.1262973068
 O          8.1277832830        0.0401210316        0.2512023616
 C          8.7967341439        1.2804138771        0.2160913333
 C          6.2505173320       -1.3252073472       -0.0663961436
 O          7.0736842129       -2.3003055377        0.3701544621
 C          6.5949987424       -3.6213894417        0.4614847202
 C          4.9261788894       -1.5029083624       -0.4407532799
 C         -0.2611358191       -1.1746700690       -0.8018205977
 C         -4.0956788292        2.9752597549        0.8494002418
 C         -4.7165510819        2.5272220626        2.1705454555
 C         -3.7191776170        4.4510977427        0.9309788854
 H         -4.6891587282        0.9646223805       -1.2653953908
 H         -6.8388082642        0.2300371760       -1.8834645741
 H         -7.0702100747       -1.1783216033       -2.9470830946
 H         -5.5892736266       -0.2021567427       -3.0884373516
 H         -4.9350583689       -3.8653243777        2.2370958339
 H         -5.2737563659       -5.0681866891        0.9684372639
 H         -3.6099220939       -4.4815295298        1.2075966985
 H         -3.1394780536       -2.3138445486        2.0660453365
 H         -2.2782620751       -0.0431014943        2.1099342137
 H         -3.2138353439        2.6801902291       -1.6120752741
 H         -1.7896020094        3.3865057982       -0.8584985170
 H         -2.0380895171        0.4549725149       -1.6958499604
 H         -1.3157571986        1.7479841813       -2.6621325820
 H         -0.8103574392        1.7405665864        0.9246415179
 H          0.4632055193        2.1301843472       -0.9115101832
 H          1.8586837315       -0.4367280510        0.6863269329
 H          2.1315795563        1.1194182823       -0.1432625586
 H          2.5597521301       -0.1385450221       -2.2734292546
 H          2.4772838949       -1.6679971158       -1.3783822750
 H          1.9006748855        2.9939555170       -0.2623180969
 H          6.4692830809        2.0384688702       -0.6237187536
 H          8.3220313768        2.0089939793        0.8801350651
 H          8.8390130768        1.6824377707       -0.8006222719
 H          9.8069054660        1.0765673476        0.5662712312
 H          7.4323542061       -4.2092959964        0.8326444337
 H          5.7601466501       -3.6977316686        1.1651863280
 H          6.2888868547       -4.0055870402       -0.5164900553
 H          4.4778659238       -2.4839277226       -0.4034020125
 H         -0.3820036533       -1.4850398975       -1.8414533835
 H         -1.2453466793       -1.1168122826       -0.3322674930
 H          0.3260288899       -1.9263424569       -0.2799815666
 H         -4.8540247804        2.8614339122        0.0660429146
 H         -3.9922086774        2.6237344287        2.9731706206
 H         -5.0522421928        1.4942269751        2.1197917059
 H         -5.5739705952        3.1540005632        2.4009036743
 H         -2.9530131261        4.6054822554        1.6848246007
 H         -3.3652658375        4.8339293799       -0.0224481001
 H         -4.5956374618        5.0268979953        1.2171260107
 H         -0.8899466242        2.7903511881        3.0182112763
