  25
        -42.04548749
 C          3.3796246095        1.1851502740       -0.2251412336
 N          2.4337186315        0.1052894839       -0.1092654030
 C          2.7519072961       -1.1835236184       -0.1416040012
 N          1.6547189442       -1.9305211120        0.0195194473
 C          0.5418523959       -1.0840422592        0.1637651597
 C          1.0866812851        0.2281686397        0.0747267101
 C          0.3334987189        1.4913880166        0.1352476303
 O          0.8753971264        2.5912093817       -0.0038475083
 N         -0.9599081263        1.2957592393        0.3392637464
 C         -1.9338701688        2.2843231695        0.4379036791
 C         -3.7958973747       -1.1605428250       -0.8202621643
 O         -4.1854497395       -0.1152552640       -0.6710416270
 N         -0.6871502725       -1.3962367590        0.3309400629
 C         -1.2464925486       -2.6824231171        0.4465155279
 H          3.9663007664        1.2698970998        0.6909148946
 H          4.0532815538        1.0056730963       -1.0614153903
 H          2.8345050239        2.1179206632       -0.3767196846
 H          3.7463131144       -1.5664797728       -0.2773593540
 H         -1.5125942979        3.2984013864        0.4222690656
 H         -2.6431532961        2.1820000368       -0.3928622764
 H         -2.5000308097        2.1388053074        1.3647813123
 H         -0.6713012758       -3.3475973152        1.1005111357
 H         -1.3438207280       -3.1501834421       -0.5402408179
 H         -2.2546275171       -2.5696730315        0.8484336010
 H          1.6265826169       -2.9394135044        0.0203488953
