72
 energy: -99.389979019480 gnorm: 0.003138857627 xtb: 6.6.1 (8d0f1dd)
N           -1.24795498990168        3.02170890594042        1.43970629928818
C           -1.62189067663168        1.92997912369607        0.76852992653444
C           -3.13759851556277        1.76296129690391        0.33700772516110
C           -3.63889696460272        0.35855521249532        0.40032062327759
C           -4.49738641532759       -0.08878288422375       -0.60640779822407
C           -5.00152424050187       -1.37996979834443       -0.59776367698648
O           -5.82441572267966       -1.90291739345212       -1.52506297437874
C           -6.27141755325155       -1.09504336729615       -2.58908172534959
C           -4.63926039746966       -2.26360763663167        0.45913241842736
O           -5.16332845247133       -3.49930093884646        0.38255921005040
C           -4.88643905719704       -4.42925344149996        1.40457777057735
C           -3.79935145537452       -1.80129851914407        1.46246499495147
C           -3.30717826308681       -0.50520823393820        1.43437217229322
C           -2.11252655688489        2.09962365847268       -0.68491920794717
C           -1.66896663763769        1.10850913032360       -1.73647001130032
C           -0.14751166089972        0.90696202096076       -1.79145715945980
N            0.35857602601886        0.14476957579247       -0.66887525365977
C            1.73216684175601        0.40221560949956       -0.31998112709198
C            2.75864940222529       -0.08173739580853       -1.37450605039359
C            4.16070313231575        0.09309255572631       -0.88030705941419
C            4.83399623298257        1.29583685550259       -1.05744095942790
C            6.13375450653392        1.45731441709784       -0.60859071464823
C            6.79435349040465        0.41771849792333        0.03521558200615
O            8.05446572654538        0.45390762820590        0.49697838820751
C            8.82905886743809        1.61672575254401        0.31163777989389
C            6.10842678626855       -0.81555854639827        0.23635377543633
O            6.81987935531327       -1.76708687762483        0.86635257244681
C            6.24472552086144       -3.03360101905185        1.08559194608874
C            4.80614426688569       -0.95066293409003       -0.22155354250836
C           -0.02392687109518       -1.24872001264290       -0.65290079679345
C           -4.16103610658707        2.77441861812923        0.84144295493774
C           -4.34203995356036        2.62126527962694        2.35237118993222
C           -3.83752332934222        4.22328993793754        0.50031168751365
H           -4.76423339707455        0.59342987059895       -1.39807084250821
H           -6.82913722917585       -0.22683505948977       -2.22605309377625
H           -6.93266369132469       -1.72801053693923       -3.17757515333700
H           -5.43895415913804       -0.75972448017617       -3.21560317604857
H           -5.24443768775778       -4.07480122760391        2.37559490829052
H           -5.42463615559592       -5.33407113076311        1.12954545099207
H           -3.81605238428913       -4.64858800878916        1.46717855938481
H           -3.52372777058971       -2.44645094345977        2.28054747928878
H           -2.66663194490269       -0.17174461769539        2.23559209419941
H           -2.07518051484426        3.13260473270258       -1.00200063758461
H            0.34021847104255        1.88159325386653       -1.78774927168594
H           -2.15827493692291        0.14624692744195       -1.58376574941347
H           -1.98801952971659        1.48942848841987       -2.70911967328220
H           -1.13985128006027        0.97120844218338        0.96785861290986
H            0.08977056648742        0.40001789203509       -2.74124382982188
H            1.94223042732909       -0.09659472174975        0.62984820361997
H            1.85188214206391        1.47807229352111       -0.17078173787319
H            2.61527686488656        0.48902565768965       -2.29288831016793
H            2.57237231039768       -1.13582837826003       -1.58456952545512
H            4.34612858443732        2.11450941163767       -1.56369238039740
H            6.63304129985645        2.39859290236842       -0.77044710141172
H            8.39131121247413        2.47606884862901        0.82812339051500
H            8.95042279739075        1.85082552145895       -0.75008733061486
H            9.80137526303058        1.39136698571297        0.74558553940870
H            7.01236382679584       -3.62020520349682        1.58663602846091
H            5.36231337236514       -2.96687114334543        1.72954369274083
H            5.97519516514756       -3.51945705519837        0.14289361133154
H            4.28230114247982       -1.88369585924983       -0.08366862712746
H            0.23173060050762       -1.76779906041070       -1.58594084224018
H           -1.10000269263288       -1.33931973339470       -0.50115751117906
H            0.47525286364140       -1.75031817517817        0.17392446348230
H           -5.11056624145691        2.50482931715460        0.35878059676998
H           -3.41675723388665        2.89343800390974        2.85591069218702
H           -4.60442959480659        1.59889428831926        2.61470107307568
H           -5.13209247454757        3.27907174738300        2.70349823935931
H           -2.85709215408760        4.48285820137933        0.89354191369435
H           -3.85765994810191        4.39582614043212       -0.57305745579547
H           -4.57848856424015        4.87347775526892        0.95836754163504
H           -0.61250806363345        2.86696309779842        2.21145604153752
