25
 energy: 10.374011646909 xtb: 6.6.1 (8d0f1dd)
C            3.25198912197308        1.16380460395103        0.09115288601838
N            2.26031812810719        0.12340711738604        0.03255074930809
C            2.55708355259075       -1.22010503416720        0.05001689360697
N            1.37758191425042       -1.93309625639323        0.00429526039880
C            0.30945552498550       -1.07089557946398       -0.01710576216030
C            0.85649709924842        0.20601567989342        0.00559819293354
C            0.02060724802901        1.32098187466138       -0.04065535624553
O            0.44307746033730        2.48244561628789       -0.05320211114999
N           -1.44540079912376        1.02151115236967       -0.06824038205937
C           -2.20720430767482        2.24928338294970       -0.02696982791807
C           -2.12048822613091       -0.17681188696262       -0.14081695017273
O           -3.29341582277012       -0.43674863347368       -0.18789515285841
N           -1.06814238555109       -1.28598938522989       -0.06340522843891
C           -1.41706992013907       -2.69207157161767       -0.04998007247027
H            3.75327934147842        1.19798809520734        1.06795322945235
H            4.03184807066941        1.00345510192312       -0.66414178308626
H            2.74318398754714        2.11000205786641       -0.08705511054830
H            3.55812419615111       -1.60395397588693        0.03621794922267
H           -1.54908725989837        3.11983704621637       -0.01309478721158
H           -2.81655289922322        2.28479335283271       -0.92018048503795
H           -2.81749246943604        2.23350934158216        0.87047995601175
H           -1.04171356519365       -3.20799768044699        0.84260043677121
H           -1.02826939829622       -3.21476065361959       -0.93091918148897
H           -2.49933805500638       -2.73768720525783       -0.05865222252888
H            1.43011861416736       -2.93996549674723        0.00202921398143
