25
 energy: 82.340731305138 xtb: 6.6.1 (8d0f1dd)
C            3.25738922848001        1.12923702531421        0.09735925523578
N            2.27816291587807        0.07775242973033        0.01683947792516
C            2.61022400929141       -1.20535201387445        0.04861130790414
N            1.49062969137576       -1.97490303546139       -0.00482788459807
C            0.33766458583633       -1.15871847143899       -0.02319371183742
C            0.87523762795336        0.16031986831127       -0.01062168525640
C            0.20411344489016        1.32737496499196        0.01687830454367
O            0.55443985271439        2.48305959772149       -0.05212964253654
N           -1.82730077112598        0.99610870096849       -0.11389746463557
C           -2.19107276283973        2.40683988493830       -0.00316738073785
C           -2.83473641543439        0.26883226481294       -0.21810431780152
O           -3.73919344841574       -0.48297728524300       -0.24566171836835
N           -0.90829993363889       -1.42842206708156       -0.04104227015214
C           -1.27795328440460       -2.80314771685450       -0.03319134635862
H            3.74000902564017        1.13789481302297        1.07963477341286
H            4.03397987349963        0.96066291600432       -0.65247512796348
H            2.79144783959320        2.10160211604735       -0.07789976187395
H            3.61905129707819       -1.55689631685726        0.05284016343134
H           -1.39112730562065        3.14421147609812       -0.02801636246425
H           -2.82191272472941        2.56057366870348       -0.86388582503633
H           -2.72124046572103        2.46259012532130        0.93847468433415
H           -0.87606507644900       -3.27054063319182        0.86673030086850
H           -0.86854488383180       -3.29761607239489       -0.91363867849686
H           -2.36425025256582       -2.91699352307130       -0.04105811897852
H            1.55609091430172       -2.97340466178720        0.00966902561087
