25
 energy: 102.985254019743 xtb: 6.6.1 (8d0f1dd)
C            3.31201508552908        1.15761618520869        0.08502636379739
N            2.35402338486863        0.07973572579087        0.03895860494047
C            2.69538077816312       -1.20166204081354        0.02905678336786
N            1.58652336026981       -1.96092310984654        0.01172093372791
C            0.44519344296009       -1.11608161681473        0.00738004067635
C            0.99276193039884        0.20117163454619        0.03058911175511
C            0.25653705014894        1.47665144255284        0.01132038827234
O            0.84367666543125        2.57194092889537       -0.03113860093308
N           -1.04829179800988        1.26177765521613        0.03826075972829
C           -1.99607237842233        2.31861130017111        0.00393048016993
C           -4.38162232660564        0.23362570630324       -0.37771539495713
O           -4.06772707012683       -0.83268111980321       -0.19614524633519
N           -0.78001880724938       -1.45436332418963       -0.01725423257553
C           -1.24369600282756       -2.80310749635383       -0.02722314564782
H            3.78453076381494        1.19517195820798        1.06721600987874
H            4.08040222514519        1.00857179100243       -0.67346970676575
H            2.77719621999188        2.09478044977175       -0.08915620487121
H            3.70211170494790       -1.56916769787068        0.03188084844523
H           -1.53589482239506        3.31230784975074       -0.01227012451607
H           -2.63388604498910        2.18811645999922       -0.87744223713206
H           -2.64878131690137        2.21666596308226        0.87666928490099
H           -0.93076191503743       -3.36149481684475        0.86376245853113
H           -0.91001358185546       -3.35382601212004       -0.91574491979181
H           -2.33318588459166       -2.75602752234619       -0.04040210271689
H            1.56364553895532       -2.96631211759027       -0.00335422494592
