25
 energy: 114.544693134461 xtb: 6.6.1 (8d0f1dd)
C            3.29217731599969        1.15124674281782        0.09132516901755
N            2.31922482329760        0.08033041608028        0.04148954780269
C            2.68510600340107       -1.19635801209809        0.02977928611594
N            1.59634571787064       -1.98140072239308        0.00403461311765
C            0.42378105181208       -1.16542976951338       -0.00764553974984
C            0.93567713035786        0.16515364841807        0.01863750383197
C            0.14738980045206        1.38606969770985       -0.00581125452832
O            0.70354113421094        2.49696014076072       -0.01936543952811
N           -1.25630482638739        1.16162409985197        0.00893372790247
C           -2.03669126447487        2.37359967485688        0.00852673495229
C           -3.66365229047819        0.44627687835878       -0.34684951358631
O           -4.12560159268647       -0.58012467767087       -0.19438709121516
N           -0.78972313744965       -1.52394318361901       -0.02102060591439
C           -1.21862582393132       -2.87860526118191       -0.02899208736418
H            3.77245250090005        1.18908726140147        1.07159385639636
H            4.06475191784257        1.00149600459294       -0.66618324775202
H            2.79277577761440        2.09888141554563       -0.08169030716880
H            3.69686229176230       -1.55744046338798        0.04059722199467
H           -1.41222024164626        3.26366819005056       -0.00758688360972
H           -2.71324713441987        2.42930736088720       -0.85950974957666
H           -2.66100119395987        2.45118915012537        0.91638648546169
H           -0.87666565765575       -3.39057731143117        0.87367220642715
H           -0.84829201311940       -3.38990471234249       -0.92017027795236
H           -2.30120449262449       -2.92593158611311       -0.04272619151239
H            1.62890896676348       -2.98642534945967        0.00891011686725
