25
 energy: 2.917180641788 xtb: 6.6.1 (8d0f1dd)
C            3.25273142458805        1.16982662653108        0.08815804586235
N            2.27674527795665        0.11954340012872        0.03236582258250
C            2.56907662881308       -1.22891241705784        0.04405962844878
N            1.38064539036795       -1.93082240395253        0.00681028926048
C            0.32970617326226       -1.06211438273768       -0.01079007336907
C            0.87625395376508        0.21381452558628        0.01077583027176
C            0.04429451289707        1.33530060970056       -0.02338620380714
O            0.45273801200575        2.50203499106826       -0.03530880575952
N           -1.39758485447143        1.02201382008799       -0.05442322409989
C           -2.20804205183187        2.22149643290341       -0.03157105350669
C           -2.04151477168669       -0.19232080512999       -0.11836325845281
O           -3.22394004724096       -0.42419134509951       -0.15550527582245
N           -1.03781757015336       -1.28468522974413       -0.05415151353456
C           -1.43001183524940       -2.67904436081973       -0.05260259193758
H            3.74745071691870        1.20915977898128        1.06690158985300
H            4.03108989545095        1.01586183499168       -0.66889546094200
H            2.73245475445406        2.10924167923506       -0.08970179818845
H            3.56548016758235       -1.62080818384795        0.03716886200224
H           -1.57691592750912        3.11094875626731       -0.01496878654530
H           -2.81375401176058        2.23342623075055       -0.92933033794536
H           -2.83145094791853        2.19256714555542        0.85730162591446
H           -1.07405675297016       -3.20791513049043        0.83883239494182
H           -1.05757020285552       -3.20465227059362       -0.93798146341857
H           -2.51398334532647       -2.69071668790140       -0.06342796448640
H            1.41187186661856       -2.93785873447981        0.00186784887507
