25
 energy: 109.259751732057 xtb: 6.6.1 (8d0f1dd)
C            3.30400850182374        1.16166147531657        0.08688956846262
N            2.34736750779192        0.07451311992012        0.04210304852824
C            2.70931737592275       -1.20765780166284        0.02494859265226
N            1.60814051729782       -1.98284869646757        0.01860634939595
C            0.43433260739592       -1.15865397926059        0.01325305806476
C            0.96555090979756        0.17085854032371        0.03027552312873
C            0.19659344597088        1.40818204065519        0.01675652965878
O            0.72418722681509        2.53091227204182       -0.02594197513326
N           -1.17434491445038        1.17081960442582        0.01733348485367
C           -2.01955570297809        2.32833073395026        0.00555969325988
C           -3.93847594086278        0.43902832880892       -0.37377369611744
O           -4.23102622469279       -0.64926343386852       -0.20958790566948
N           -0.78083478196212       -1.53132881174979       -0.01346034852652
C           -1.22124880706440       -2.88719239383678       -0.02621751348172
H            3.78262318463268        1.21385747985193        1.06780062631558
H            4.07728887160218        1.02515071421371       -0.67100143311602
H            2.78231982931366        2.09946610607948       -0.08808877989937
H            3.72560708787207       -1.55635526112402        0.03882348810712
H           -1.45208787157916        3.26218974351490        0.01098918494672
H           -2.66601344353860        2.35201083165944       -0.88571055838629
H           -2.68724170816231        2.35767769843202        0.88818520762786
H           -0.90728030282189       -3.43070339051173        0.87228353722047
H           -0.87822000095851       -3.42443736583183       -0.91825366315187
H           -2.30779223127550       -2.86747409947258       -0.04136838790682
H            1.58879234145482       -2.98856269192025        0.00344576973353
