25
 energy: 111.786935814727 xtb: 6.6.1 (8d0f1dd)
C            3.29585248159782        1.15729864333233        0.08930640900104
N            2.33226553183279        0.07683554560062        0.04204430608315
C            2.69728226198935       -1.20205369004426        0.02701175835102
N            1.60346518483572       -1.98134572268306        0.00787618600878
C            0.42671903171916       -1.16363165913570        0.00174671220680
C            0.94840820122865        0.16543334585669        0.02470883020327
C            0.17465755575096        1.39812243812730        0.00772434689615
O            0.72024817762315        2.51448328214002       -0.02118411165156
N           -1.21160974359948        1.16805554978757        0.01135404151080
C           -2.02587157616184        2.35311867109210        0.00649933361320
C           -3.79833264974782        0.47099385024242       -0.35985895452895
O           -4.18347006379627       -0.58817200411724       -0.21231600124970
N           -0.78671923710646       -1.54222199391394       -0.01622821695854
C           -1.21503441489144       -2.89847839095529       -0.02682574319991
H            3.77689514218789        1.20130103946123        1.06936727617395
H            4.06835303570757        1.01502352478468       -0.66924963404964
H            2.78317550656484        2.10061938050781       -0.08152145045340
H            3.71087179126436       -1.55833457957817        0.03865060277450
H           -1.42982572883523        3.26672712345545        0.01256969385899
H           -2.68756196246013        2.39164045721262       -0.87460916909874
H           -2.67694243322623        2.40298085799505        0.89954785161727
H           -0.88156606563607       -3.42147846780565        0.87487173567874
H           -0.85363661099921       -3.41953680231433       -0.91892025446984
H           -2.30213158574674       -2.90621239883244       -0.04137209109493
H            1.61034352003356       -2.98734988346673        0.00521897025333
