25
 energy: 103.226999497727 xtb: 6.6.1 (8d0f1dd)
C            3.31606513430953        1.16028355637583        0.08608042263450
N            2.36644734790796        0.07723231871345        0.03986095694667
C            2.71008192387492       -1.20561815130431        0.02891879030156
N            1.59929222164272       -1.96442420674071        0.01346962240174
C            0.45793165271903       -1.11877098965653        0.00901601232974
C            1.00693242713544        0.19813669553774        0.02467844247092
C            0.26976355828976        1.47365250383926       -0.00076278930752
O            0.85841142206870        2.56824593231769       -0.02746761152829
N           -1.02740600321334        1.24625545583020        0.03608008452303
C           -1.98603576588192        2.30071845970464        0.00494045603399
C           -4.45741177418236        0.21257191675190       -0.36813173100194
O           -3.97068606767940       -0.79537441701358       -0.20648259317731
N           -0.77092399742685       -1.45440676292039       -0.00861562701842
C           -1.23332604707302       -2.80499384213882       -0.02435964750768
H            3.78845181336869        1.20408009123725        1.06987472020658
H            4.08478007647069        1.01149348614980       -0.67172024036068
H            2.77265013219268        2.09481690731324       -0.09101404920375
H            3.71585451324836       -1.57563295346929        0.03289104940273
H           -1.55382416244582        3.31674481193309       -0.01470503851789
H           -2.61418340838803        2.17757227627424       -0.88429044156174
H           -2.65036881932563        2.21219453763345        0.87230758149740
H           -0.92524011806642       -3.37483025727988        0.86321206517827
H           -0.89931059046126       -3.35722975331193       -0.91354066021198
H           -2.32145122808430       -2.76674949635334       -0.03870375359534
H            1.57567220957671       -2.96997594288745       -0.00128972642480
