25
 energy: 36.766119713093 xtb: 6.6.1 (8d0f1dd)
C            3.24884940793328        1.15031727273206        0.09695748162112
N            2.24525799294043        0.11764716195613        0.03741443505174
C            2.56026034434759       -1.20433025007513        0.06230092438286
N            1.40234747167672       -1.94405553468592        0.00427107175637
C            0.30435388661102       -1.10400960462892       -0.02225619351018
C            0.84121068314415        0.18598902885811        0.00372010943444
C            0.04042853489539        1.30790183316257       -0.04180097229055
O            0.44974072387900        2.46576141874727       -0.05961327200392
N           -1.54424556305644        1.03514350740959       -0.08630718876808
C           -2.20082670306849        2.31351178100058       -0.01841163934066
C           -2.31099724264570       -0.05975057771901       -0.16689594990653
O           -3.43570998916143       -0.44990522461320       -0.23130093397245
N           -1.04465741080979       -1.32569654897499       -0.06057762874168
C           -1.37626395403040       -2.72658525795075       -0.04505929475023
H            3.75154120243206        1.17305804499009        1.07357595052469
H            4.02964736528294        0.97856623580511       -0.65549346278148
H            2.76274083370975        2.10919773607774       -0.08309058045446
H            3.56769656286156       -1.56806519997614        0.03022882152521
H           -1.48553726347370        3.13736816870880       -0.01454215892019
H           -2.81873310761113        2.38856157127117       -0.90216191712840
H           -2.78637173999486        2.32233732171733        0.89473560448445
H           -0.98294469889990       -3.22702213910838        0.84882863295097
H           -0.97294173041015       -3.24180710866400       -0.92393495338854
H           -2.45861417897492       -2.80970487872352       -0.05301906147028
H            1.47923402593055       -2.94848525788692        0.00420958486059
