25
 energy: 84.429932258295 xtb: 6.6.1 (8d0f1dd)
C            3.26503479515331        1.13445940427481        0.09801375021111
N            2.29374937926483        0.07416579867998        0.01773371529435
C            2.62963987858475       -1.20513495360855        0.04595917906726
N            1.51546188024078       -1.97946171384835       -0.00628738024298
C            0.35672854737466       -1.16632562448927       -0.02364258659191
C            0.89108883718717        0.15690327955949       -0.00990432885381
C            0.22866070136903        1.33133904837610        0.02081145065120
O            0.58302478504819        2.48590626848048       -0.04314936857047
N           -1.82973550429299        0.99631838520168       -0.08433255599419
C           -2.17598246184902        2.41829255669051        0.00126808678409
C           -2.88800928837174        0.33597663248735       -0.21454187728780
O           -3.76052207805139       -0.44821803816656       -0.23488650185633
N           -0.88140420641704       -1.44532121269050       -0.03980161474329
C           -1.24690058707027       -2.81949929745618       -0.03055145608480
H            3.74299410303788        1.15037477862344        1.08132921026865
H            4.04134804102581        0.97330352094323       -0.65235217837395
H            2.79902967962525        2.10410245573531       -0.07657248806124
H            3.63844856257594       -1.55846653971562        0.05317771885608
H           -1.37463033761384        3.14475893441763       -0.04483171391376
H           -2.81980641128669        2.59539043895726       -0.84860047560128
H           -2.69605793195909        2.49923515869958        0.94782677668337
H           -0.84201892131576       -3.28329989111424        0.86992162197845
H           -0.83398268549995       -3.30730194192661       -0.91214670896370
H           -2.33126214263008       -2.94494965593311       -0.03767806486281
H            1.58111401110754       -2.97798859539166        0.00953261580631
