25
 energy: 120.100535792953 xtb: 6.6.1 (8d0f1dd)
C            3.27297826894826        1.14223198572072        0.09460625974241
N            2.28440472586836        0.08466586995662        0.04127058720385
C            2.64891080121916       -1.18883334328288        0.03717528336822
N            1.56041643806235       -1.97798367514052        0.00114106545549
C            0.39319166741196       -1.16547593373039       -0.01551265710445
C            0.90297239611200        0.16104266525153        0.01081217051851
C            0.09067582019054        1.36144840884503       -0.01671033838545
O            0.65592498617795        2.47002184391829       -0.02016838670821
N           -1.33063040199326        1.15593437019902       -0.00016914290431
C           -2.05295931925947        2.41703115666055        0.00627521599161
C           -3.38792114916520        0.42360089765367       -0.31020507961644
O           -3.94283835797224       -0.56311286015769       -0.20413221534308
N           -0.83103752431048       -1.49171068002542       -0.03051850216263
C           -1.19934726306948       -2.86156223890876       -0.02575753494711
H            3.75374109763870        1.16275348637420        1.07614443592466
H            4.04706557029520        0.97448754693236       -0.65998027105577
H            2.79715975730711        2.10326782175167       -0.07902768212932
H            3.66499013302267       -1.53781055633862        0.03440122737722
H           -1.36875057201050        3.26093887527874       -0.02843929618434
H           -2.74086931219869        2.52155901732885       -0.84185707552350
H           -2.63830596904728        2.48697370759480        0.92910510515398
H           -0.82941495969055       -3.34515371366951        0.87710460433707
H           -0.79711406468965       -3.35445504938119       -0.90980109800117
H           -2.27240146496792       -2.98491545247795       -0.03490535609065
H            1.60372821055518       -2.97945017143408        0.00635943828578
