25
 energy: 103.414396407602 xtb: 6.6.1 (8d0f1dd)
C            3.31549675969967        1.16305667207083        0.08521112701692
N            2.36507958643627        0.07628715255822        0.03815286033267
C            2.70665570004519       -1.20501924473177        0.03111442104212
N            1.59383667702316       -1.96478381413764        0.01373567045214
C            0.45357332278229       -1.12436893859274        0.01091718999545
C            1.00315047381881        0.19365080473972        0.02747407184737
C            0.26004144886021        1.46201998796375        0.00050478219823
O            0.83075250270414        2.56519903225323       -0.03876471563387
N           -1.04344132517220        1.22303087739163        0.03101647502076
C           -1.98882785284131        2.28491785025192        0.00373575590682
C           -4.30076331528413        0.26153878029471       -0.36585676179300
O           -3.97460751060391       -0.80710953342057       -0.20021758674323
N           -0.78075712491693       -1.44297751286577       -0.00264687218760
C           -1.24862376664386       -2.79922738850842       -0.02338151383037
H            3.78601204226874        1.20858664578353        1.06863481667419
H            4.08553218248200        1.02150828013936       -0.67318264634842
H            2.77432413640825        2.09640272615900       -0.09357839636191
H            3.71495928580760       -1.57190219781854        0.03059496575083
H           -1.54737890453749        3.29670083007804       -0.00552262066363
H           -2.64026196416561        2.19268603149575       -0.87598781980910
H           -2.67191282351237        2.22383277908738        0.86102825851133
H           -0.92982245697559       -3.36762501175374        0.86003038922462
H           -0.91005151479174       -3.35304093299725       -0.90980230426115
H           -2.34070344058733       -2.76565265679124       -0.03530354726594
H            1.58562921135809       -2.97034721356410       -0.00340583052801
