25
 energy: 107.381957078112 xtb: 6.6.1 (8d0f1dd)
C            3.31116424833969        1.16774148297919        0.08401965779328
N            2.36254306171148        0.07426729412479        0.04162419885520
C            2.71885043386320       -1.21008030740515        0.02424021107574
N            1.61442495530153       -1.98174676460106        0.02081618233241
C            0.44210062243854       -1.15131464031955        0.01895188352344
C            0.98170629512238        0.17697291261426        0.03520174485323
C            0.21830018028237        1.42541213841001        0.02089667517820
O            0.74865935789670        2.54679716253132       -0.02727714936956
N           -1.13554157439289        1.17959618661991        0.02356747036183
C           -2.01000528127020        2.30870838968017        0.00446534676533
C           -4.04674480644563        0.38727252531970       -0.37189144288028
O           -4.26906911634249       -0.71943967805206       -0.22429167006370
N           -0.77907359237495       -1.51179110049209       -0.01654727441343
C           -1.22643122939086       -2.87297704670289       -0.02494224153469
H            3.79068065056835        1.22793022299379        1.06470578709649
H            4.08476102847804        1.03823921330034       -0.67512632043913
H            2.77452783183903        2.09960170351771       -0.09130176712227
H            3.73586412230270       -1.56373721732861        0.04003106741277
H           -1.47752956433458        3.27023773749493        0.00510400760083
H           -2.65374102693678        2.30094245258751       -0.88902205551198
H           -2.69058307809223        2.31646820964784        0.87841999989714
H           -0.91840665663581       -3.44111040500872        0.86641885698650
H           -0.89535426920814       -3.43195392609411       -0.91269282940339
H           -2.31853523721153       -2.82891419380387       -0.04083871426380
H            1.58278729573885       -2.99030927124939       -0.00221127697530
