25
 energy: 105.454813377372 xtb: 6.6.1 (8d0f1dd)
C            3.31026272767622        1.16733605899907        0.08060715489553
N            2.36547186592183        0.07473948586664        0.03418210217500
C            2.71405273830579       -1.20855299619206        0.02615612842417
N            1.60809453945483       -1.97648804908272        0.01841469857150
C            0.44960198877452       -1.14282372266974        0.01602567690720
C            0.99126399541480        0.18374791262128        0.03129326834874
C            0.23285630305999        1.44035819486885        0.01766842821187
O            0.77538539559052        2.55627303743291       -0.03208864341844
N           -1.10438966199893        1.19086779739143        0.02484302316066
C           -2.00468017809741        2.29224634048612        0.00416047557483
C           -4.12681633559643        0.32712003604344       -0.37794146307295
O           -4.19123522441572       -0.79005945782660       -0.19514349662945
N           -0.77269440046976       -1.49481350817835       -0.01797872502760
C           -1.23299154364925       -2.85058586841693       -0.02491918663648
H            3.78904470392336        1.22402353382897        1.06146431346756
H            4.08369777710660        1.03497784477667       -0.67837016927381
H            2.76999764653811        2.09984512462691       -0.09535288400959
H            3.72938336436272       -1.56439359324759        0.03897915230565
H           -1.50291232346086        3.27719709019868        0.00223507787180
H           -2.65053308628954        2.26145429316177       -0.88868507860947
H           -2.69078755831513        2.28006214978547        0.87358381922991
H           -0.92807470945170       -3.42621928494849        0.86388120570937
H           -0.90991054598546       -3.41543987638817       -0.91333456684446
H           -2.32661125310967       -2.78986506211775       -0.04081119302898
H            1.57463029706488       -2.98405925420011       -0.00427788025566
