25
 energy: 87.617759374044 xtb: 6.6.1 (8d0f1dd)
C            3.27488512569220        1.13621381339065        0.09812576862010
N            2.30967583997134        0.07090212261248        0.05356576935889
C            2.64697610065147       -1.20347990274536        0.04477366557472
N            1.53908199282902       -1.98239018794459        0.00375039954695
C            0.37383284739589       -1.16994581489227       -0.01846416949109
C            0.90786570959756        0.15826733262941        0.01336564477894
C            0.26121238853031        1.34191213884735       -0.05891689265929
O            0.63200549079552        2.49605467969824       -0.01579446529325
N           -1.87359669534059        0.98273980754414       -0.05957929245091
C           -2.17266394624266        2.42927877860112        0.00509273821393
C           -2.96787253872998        0.35534916785431       -0.19927290881649
O           -3.80609261027196       -0.47062481637467       -0.23740292014723
N           -0.85341106419994       -1.46590864265123       -0.03932175280076
C           -1.21876819579012       -2.83831572760434       -0.02865883625988
H            3.75148972671527        1.16049265281577        1.08106535402799
H            4.05137449119746        0.96937733578071       -0.65469305290385
H            2.80138877654438        2.10035447786899       -0.07847587240320
H            3.65701486367639       -1.55603328268013        0.02626164367866
H           -1.37303807882451        3.16143505809540       -0.03625784010149
H           -2.81068412110361        2.58550856548009       -0.85198033977007
H           -2.68820939002473        2.53264761704740        0.95051202991648
H           -0.82530128729120       -3.31062670354717        0.87217188665621
H           -0.80440755723861       -3.32356031404412       -0.91004543095371
H           -2.29957323055868       -2.96923057047981       -0.03717860233135
H            1.60460141749282       -2.98093367809296        0.00621810434774
