25
 energy: 117.098406387827 xtb: 6.6.1 (8d0f1dd)
C            3.28680111821458        1.14486221214973        0.09495364100797
N            2.30345311649354        0.08351076315009        0.04299947691437
C            2.66902616782171       -1.19127945143884        0.03294211134008
N            1.58168598032982       -1.97902260180639        0.00214224611786
C            0.41232789614348       -1.16363261893043       -0.01198288795238
C            0.92091964988240        0.16540076267365        0.01629559426945
C            0.12126440211508        1.37489107739691       -0.01228625499382
O            0.68282751699868        2.48217619501894       -0.02048072652370
N           -1.29542372813384        1.16020942922533        0.00096661815458
C           -2.04586643180794        2.39530193494235        0.00709394363086
C           -3.52795113812215        0.43269655608755       -0.32489391263537
O           -4.04458472622286       -0.56855271515226       -0.17392493050857
N           -0.80482215906132       -1.50567643636087       -0.02631945233626
C           -1.20751549764296       -2.86578956093398       -0.02955800210027
H            3.76735562059210        1.17429374296670        1.07533125620350
H            4.05879981842251        0.98632877761011       -0.66219451585232
H            2.80287371179612        2.09971209043744       -0.07907430546430
H            3.68405369993989       -1.54344087578647        0.03724226625195
H           -1.39260016961939        3.26243323942116       -0.01949488585382
H           -2.73019916677673        2.48056241962309       -0.85013900192526
H           -2.65273810806346        2.47117222667428        0.92248245826175
H           -0.86016552145118       -3.36482888462669        0.87554573772097
H           -0.82484063394889       -3.37206098014810       -0.91700972877997
H           -2.28044441342728       -2.94677629821710       -0.04102588184756
H            1.61912908917650       -2.98237193547130        0.00772951964539
