25
 energy: -42.102917093294 gnorm: 0.002340149357 xtb: 6.6.1 (8d0f1dd)
C            3.29846446755669        1.29175756853966        0.04793060657004
N            2.38303802504651        0.18152360491183        0.03695797388581
C            2.70024550404082       -1.10854665576026        0.05021664061408
N            1.58002173762549       -1.86086581455407        0.04289110564533
C            0.50182793354516       -1.01028531887417        0.02297240544872
C            1.01296368771112        0.28272174344760        0.01938919609195
C            0.16218946042533        1.45146999542440       -0.00624896182562
O            0.53704111111993        2.60230907817624       -0.00936138784303
N           -1.18969947161865        1.09098808068026       -0.02973073570203
C           -2.16588888218769        2.17550764511451       -0.07161557769735
C           -1.73839048963584       -0.16154333790116       -0.03132790864897
O           -2.91588932975137       -0.37713013647763       -0.06699473366296
N           -0.82106605487941       -1.29467319535965        0.01194104911044
C           -1.35217471089260       -2.52700643114907        0.03357466829461
H            3.88880575404379        1.28590654087109        0.96454697502303
H            3.97434868685838        1.23384251669638       -0.80503046920227
H            2.72538598321024        2.21708340851497       -0.00417321259640
H            3.69820235552713       -1.50101063116966        0.06332035966700
H           -1.62203291647454        3.11672666984845       -0.06358936082006
H           -2.76829305940953        2.09456205315912       -0.97534567530357
H           -2.82548034209350        2.11193767600417        0.79240516941711
H           -0.72317207396712       -3.39507140083599        0.04334173783252
H           -2.42292476396457       -2.60369378957554        0.02373336822600
H           -4.31560978421075       -4.60815740116970       -0.10517616507392
H            1.55851868647486       -2.87011392696163        0.04654455045028
