25
 energy: -42.443202748903 xtb: 6.6.1 (8d0f1dd)
C            3.29199265294376        1.27766386729021        0.12380410290112
N            2.39692348210201        0.15541789801729        0.06655095416626
C            2.72623133634242       -1.14459681891643        0.06849204618968
N            1.60111778594598       -1.90222561878993        0.04790298619879
C            0.49717492723922       -1.06876703941837        0.04497379845740
C            1.01228509486042        0.25555809311555        0.04339063969076
C            0.18710869964370        1.39648534634469       -0.00213175358396
O            0.55518553959181        2.57786798558785       -0.01000238544751
N           -1.17069791256558        1.03400406041089       -0.06088551325485
C           -2.15024943261282        2.10193072350938       -0.14577879361672
C           -1.70218969097486       -0.21739104052515       -0.06816835516757
O           -2.89272409487758       -0.39699961408569       -0.18115964128544
N           -0.82062036652174       -1.34449440503392        0.02433332966370
C           -1.47964455170515       -2.54321958659515       -0.05732645903568
H            3.87462561127783        1.25416374777503        1.04644221990560
H            3.97155626628155        1.27180141061693       -0.72923124985411
H            2.69742697359813        2.19165538890671        0.10511229626778
H            3.72657814007394       -1.52606155264614        0.10502861069604
H           -1.60074574098214        3.03795118731256       -0.11426968277608
H           -2.71698523729855        2.03173961710428       -1.07307018556562
H           -2.84575493368745        2.02951165929765        0.68930285677120
H           -0.86458767297375       -3.42006369806511       -0.20679852038799
H           -2.46869887452841       -2.44676028032497       -0.51270662781871
H           -3.67561394622473       -3.69190290650737        0.31742837791399
H            1.58124214807928       -2.91077613771463        0.04649030202577
