  72
        -99.29166749
 N         -1.7518509213        2.6827971675        2.5079896952
 C         -1.7298599990        2.0696896821        1.4202050722
 C         -2.8850276508        1.9929233596        0.4595998809
 C         -3.4358851575        0.5759976509        0.4206190112
 C         -4.4190788127        0.2433031484       -0.5123208926
 C         -4.9630585810       -1.0304122537       -0.5694393854
 O         -5.9257439640       -1.4294759175       -1.4180482183
 C         -6.5089311107       -0.4974402422       -2.2990048658
 C         -4.4957482893       -2.0327470198        0.3287664202
 O         -5.0684850606       -3.2401228298        0.1925602724
 C         -4.6949009465       -4.2863132975        1.0591548967
 C         -3.5182194862       -1.6931948511        1.2529436331
 C         -3.0028782369       -0.4057216818        1.3015246974
 C         -2.3117354879        2.3693126096       -0.9325783263
 C         -1.4424300151        1.2804228396       -1.5901585525
 C         -0.0878253345        1.1504788087       -1.0007463918
 N          0.4800656408        0.0267788423       -0.5714718728
 C          1.8960704893        0.0939467585       -0.2249439581
 C          2.7773886010       -0.3089469177       -1.4173964094
 C          4.2235307850       -0.2236103038       -1.0165661593
 C          4.9214765502        0.9690298123       -1.1427588116
 C          6.2378878946        1.0708849520       -0.7231587976
 C          6.8874719654       -0.0208905657       -0.1616405507
 O          8.1533379290       -0.0367517022        0.2857271828
 C          8.9397882502        1.1288735385        0.1851283030
 C          6.1809159897       -1.2517853725       -0.0322714552
 O          6.8850005059       -2.2577078317        0.5150591736
 C          6.2882155040       -3.5248530336        0.6627056303
 C          4.8624513557       -1.3269709317       -0.4581284401
 C         -0.0991979832       -1.1622002351       -0.4667493675
 C         -4.0477948494        2.9601671546        0.8371456646
 C         -4.7000117595        2.5593502528        2.1579765449
 C         -3.6165285921        4.4225426792        0.8943989785
 H         -4.7718185069        0.9925832942       -1.2013213262
 H         -6.9711838143        0.3315616469       -1.7544751277
 H         -7.2778989532       -1.0476157586       -2.8379088927
 H         -5.7774034684       -0.1070069643       -3.0131660316
 H         -4.8967319614       -4.0322691686        2.1038842540
 H         -5.3076324192       -5.1378575790        0.7695598689
 H         -3.6378254300       -4.5442182318        0.9422036857
 H         -3.1538559709       -2.4274990451        1.9526945107
 H         -2.2634263217       -0.1739876393        2.0520111806
 H         -3.1430313926        2.5854158599       -1.6029598147
 H         -1.7227714687        3.2825234464       -0.8348108200
 H         -1.9702399233        0.3297191049       -1.5879294423
 H         -1.3100240197        1.5753919509       -2.6381652824
 H         -0.8322842830        1.5628874562        1.0266264430
 H          0.5464280667        2.0234250733       -1.0366539238
 H          2.0912844705       -0.5780498816        0.6134645625
 H          2.1476968150        1.1106357673        0.0840657061
 H          2.5765772155        0.3610698771       -2.2547854751
 H          2.5207060964       -1.3234894567       -1.7248538600
 H          4.4424602889        1.8306178883       -1.5820342849
 H          6.7549122992        2.0092574141       -0.8387490211
 H          8.5125584719        1.9511526706        0.7669907306
 H          9.0608794779        1.4412126982       -0.8561420753
 H          9.9110520281        0.8620654873        0.5974153478
 H          7.0552585924       -4.1588467814        1.1031965218
 H          5.4238731696       -3.4849120320        1.3329993182
 H          5.9853271931       -3.9400887284       -0.3031015378
 H          4.3213679358       -2.2558890523       -0.3694146884
 H         -0.6021875217       -1.2564591736       -3.0239557595
 H         -1.1431454247       -1.2946406191       -0.6596605909
 H          0.4675209140       -1.9692074562       -0.0330225526
 H         -4.8016343241        2.8637198900        0.0477289834
 H         -3.9864171062        2.6585023475        2.9701608667
 H         -5.0572639419        1.5327254322        2.1254514643
 H         -5.5462612294        3.2108778642        2.3600507865
 H         -2.8402190366        4.5593659183        1.6413292191
 H         -3.2556329385        4.7759842691       -0.0678000356
 H         -4.4684031405        5.0358512140        1.1764125363
 H         -0.9042282893        2.7028698363        3.0663791334
