  25
        -42.18159022
 C          3.1481061924        0.6949331628        0.3790794853
 N          2.1481089084       -0.3032128354        0.1187811227
 C          2.3768809418       -1.6080994319       -0.0033353927
 N          1.2201826227       -2.2503358263       -0.2220730805
 C          0.1847579052       -1.3247365890       -0.2291382279
 C          0.7906048589       -0.0765927735        0.0093288849
 C          0.2152492691        1.2637309509       -0.1271820908
 O          0.8768705250        2.2085936679       -0.5197270243
 N         -1.1441744268        1.3794232227        0.1299200064
 C         -1.8716413889        2.4740659934       -0.4783711656
 C         -1.8438352000        0.5848780902        1.0070344156
 O         -3.0337944303        0.6469536002        1.1440789705
 N         -1.1153622072       -1.5520289588       -0.4031496651
 C         -1.6973269046       -2.6031343811       -0.8430582392
 H          3.1115103739        1.0030485228        1.4263516299
 H          4.1343948612        0.2935739629        0.1582259136
 H          2.9549271412        1.5740436781       -0.2381331491
 H          3.3402260433       -2.0747996616        0.0654341181
 H         -1.1711449218        3.1134448528       -1.0123831235
 H         -2.6205987282        2.0763984744       -1.1672005644
 H         -2.3929323094        3.0497637593        0.2878320079
 H         -1.2044056662       -0.0543722589        1.6284414357
 H         -1.1923560246       -3.4884104431       -1.2233787340
 H         -2.7750634426       -2.5998124529       -0.8513392483
 H          1.1211562227       -3.2468420397       -0.3483879737
