25
 energy: -42.454144431604 xtb: 6.6.1 (8d0f1dd)
C            4.96469130202493        0.37081267189560        0.04715387741425
N            2.02821433401802        0.50017572554621        0.19229373218957
C            2.40351708615849       -0.79273635866268        0.13533355843941
N            1.29328114284077       -1.57995244569473        0.08255793587454
C            0.19596531082238       -0.79431929474230        0.02404423511086
C            0.62824803153049        0.52795552144421        0.06928027654373
C           -0.36984420274146        1.58213764382686        0.00943157336837
O           -0.15454696610646        2.77415685007088        0.01983517224659
N           -1.67987868438149        1.10042359948146       -0.07105130254386
C           -2.82572924562722        2.00723115614073       -0.12766400972513
C           -2.09125056758605       -0.22323180363870       -0.08687050728074
O           -3.26406876763674       -0.51998200859091       -0.13023088523733
N           -1.10888038410509       -1.19298518404686       -0.05207016434699
C           -1.50971029271197       -2.59053908169460       -0.06260860953254
H            5.64858667334081       -0.12603276666150        0.65118272047121
H            5.38389613110061        1.00153579486309       -0.71461035945484
H            2.96505573462015        1.14098299791608        0.23056034744524
H            4.17228499161398       -0.37185504357581       -0.03594004688086
H           -2.50910457852007        3.03571142910843       -0.11614544902248
H           -3.39716074176951        1.78866501316687       -1.03187214727181
H           -3.47460097916352        1.79741826704249        0.72479992081033
H           -1.19020639414372       -3.09370921455878        0.85218875146409
H           -1.08916079302119       -3.10073763080169       -0.93007180073108
H           -2.60148246813672       -2.62328382403112       -0.12166840018525
H            1.36135884441779       -2.58489995693776        0.09315598879427
