25
 energy: 118.550409282717 xtb: 6.6.1 (8d0f1dd)
C            3.34148384418236        1.28772722995114        0.12562606112042
N            2.38609850097512        0.20452146485262        0.07045552171993
C            2.73279060961317       -1.10273622322877        0.13434126154251
N            1.61778245020170       -1.87793300273782        0.10353770541274
C            0.49384277434836       -1.10673898160160        0.03547849301514
C            0.98036705846274        0.22232550561662        0.02249905174665
C            0.05072848277522        1.28754174920186       -0.03931083370022
O            0.41968905046439        2.46691555493080       -0.09494662264869
N           -1.34269430185254        0.88405618061523       -0.04329482013458
C           -2.14388498052695        2.10809028546377       -0.11961612798141
C           -1.86569279263549       -0.44401316315094        0.02991394022988
O           -2.97011869789261       -1.04436451022165        0.02125243993984
N           -0.83975025104870       -1.44236781391118       -0.02159019744313
C           -1.53333453203856       -2.66620523914231       -0.21790014620929
H            3.87903243201315        1.31324876549897        1.08348549107088
H            4.10355147519587        1.18959088156525       -0.65890184609444
H            2.83211733822840        2.24119150122810       -0.00269801188280
H            3.73258155718532       -1.49486561028950        0.19449024298887
H           -1.42813056562958        2.93410313688729       -0.03081583830430
H           -2.66783911484205        2.24085514514045       -1.06092966294934
H           -2.83055150536029        2.16864194103290        0.71804669240331
H           -0.93281730508073       -3.53873298036153       -0.16897585685183
H           -2.34168287376399       -2.69873936231916       -0.92893627052188
H           -3.66909255431073       -3.26482044438761        0.49898143040976
H            1.65091181888916       -2.88115110040404        0.09436924876531
