25
 energy: -0.539680149661 xtb: 6.6.1 (8d0f1dd)
C            3.25917528796343        1.19462379515434        0.09337949860308
N            2.32094335482003        0.12001649642527        0.03528220893475
C            2.63594583661716       -1.22393556881115        0.04600514620353
N            1.45837725190393       -1.92501992286973        0.01580234001379
C            0.41284627607765       -1.07378960627133       -0.01629611327131
C            0.92663766117876        0.22673127248554       -0.00386777438679
C            0.09595687607799        1.35481676743561       -0.03074491603337
O            0.44047988733971        2.54463498812316       -0.03649188694072
N           -1.30958846166121        0.98850897420679       -0.04508684273374
C           -2.21058614463312        2.12922269513854       -0.06645813419947
C           -1.85132875558885       -0.27606158766165       -0.04760601337344
O           -3.03344202231363       -0.58142506757930       -0.05410970671869
N           -0.93835227754813       -1.33942931255493       -0.03401669837202
C           -1.58186110117336       -2.63882278393934       -0.04848857862547
H            3.74706848423358        1.23795103502326        1.07355482378439
H            4.03094709041135        1.06783861944160       -0.67125237237879
H            2.72314111831668        2.12755003122829       -0.07355024655627
H            3.61530874254266       -1.64102363005146        0.07144140822328
H           -1.61392358054609        3.04410526504655       -0.03066390265724
H           -2.80014091099804        2.12279721041654       -0.98125486366074
H           -2.86695901942568        2.10046398229380        0.79924659642461
H           -1.08444503520927       -3.27942948484641        0.67571913022810
H           -1.42516321048259       -3.10460576314261       -1.01871902932618
H           -2.69504255098457       -2.53304558944225        0.15975070043947
H            1.41703818375614       -2.92712703652246        0.01815739647943
