25
 energy: 136.914222254125 xtb: 6.6.1 (8d0f1dd)
C            3.37120969907522        1.29522071511331        0.10285535772385
N            2.44916717914184        0.18851838572639        0.08648001431335
C            2.74833060232962       -1.11835229145427        0.13087906376664
N            1.62518605698306       -1.84699807673148        0.09991367494423
C            0.54029265576380       -1.00323970655810        0.00073502079724
C            1.05596618180309        0.30772380448538        0.00101177423027
C            0.19247672241006        1.42072765302186       -0.04446594535979
O            0.55808984640029        2.60415774732307       -0.05314338255019
N           -1.18131002365801        1.00421680376229       -0.06566467608846
C           -2.08999734971996        2.15028868691814       -0.12359550622416
C           -1.71870411493853       -0.23944841591775       -0.09385286154923
O           -3.90656980326251       -2.44332155754795        0.04826243851472
N           -0.77806234743001       -1.30014762559420       -0.12876592217604
C           -1.28134442894760       -2.51567991371183       -0.35153464021080
H            3.90939912006011        1.34399728292113        1.05111389029110
H            4.09893917768661        1.19708175050340       -0.70443733056472
H            2.82555952468714        2.23405756696546       -0.02857323654979
H            3.75376788443153       -1.52471036832252        0.19285207739620
H           -1.47841072281714        3.04563647395765       -0.06832240017631
H           -2.64293688400069        2.12144333910082       -1.07685576029653
H           -2.79864898154226        2.14577588811335        0.70331847661777
H           -0.67450078513801       -3.37123074177360       -0.55954600507368
H           -2.37591548577195       -2.45212364351886       -0.29617362415003
H           -4.79576113617086       -2.89399375129460        0.19010811275940
H            1.57554174399639       -2.86031312081549        0.17651385815652
