25
 energy: 127.349276346893 xtb: 6.6.1 (8d0f1dd)
C            3.42836236462803        1.30214440805498        0.12375588242784
N            2.49335263466050        0.20986340923673        0.07417335945389
C            2.77500431890943       -1.09134431754556        0.10948712512487
N            1.64896996835344       -1.81201581660833        0.04882258642947
C            0.58168904455371       -0.94961258210900       -0.02365915754541
C            1.11184496693395        0.34889290229591       -0.00465834931943
C            0.28451884230885        1.49994470254689       -0.04733753613738
O            0.65874945237252        2.67588729104849       -0.04987862926308
N           -1.07316896449422        1.12924183913908       -0.08316953933078
C           -2.02987420447565        2.22988423614808       -0.10222454026092
C           -1.60315716303752       -0.08506356329452       -0.10512692855202
O           -4.03900860902831       -3.23997674914426       -0.01290839487437
N           -0.75424609578244       -1.19242362120314       -0.08926892345377
C           -1.27614129892329       -2.42455141068812       -0.14374118687729
H            3.93061533802481        1.33258079147163        1.09327456391705
H            4.17707871296676        1.19425776317881       -0.66076027342259
H            2.87480329619958        2.23172347720628       -0.02011351892212
H            3.76267916351885       -1.50572638670125        0.17402712539408
H           -1.47986238312916        3.17203047468330       -0.04367585122060
H           -2.61903980170871        2.20412404233515       -1.02045367099808
H           -2.70785519724466        2.14553635186439        0.74481362157429
H           -0.60910248924125       -3.27506752349890       -0.14050256050835
H           -2.34945175449653       -2.59965555801508       -0.14378181037333
H           -4.84245167412504       -2.71404955249743        0.11259360685269
H            1.58897419563169       -2.82098405021806        0.06465922603798
