25
 energy: 139.637874200224 xtb: 6.6.1 (8d0f1dd)
C            3.36749778227182        1.29534366617975        0.10398268369449
N            2.44549615127714        0.18362246222386        0.09086633317476
C            2.74891528173865       -1.12640407408306        0.14353800607647
N            1.62060799718472       -1.85318840613683        0.11178061400902
C            0.53563467030778       -1.01411652093184        0.01589202636188
C            1.05247647809917        0.29536426625853       -0.00059260236058
C            0.17350159642728        1.40025352846896       -0.04024132848484
O            0.53415066840018        2.58469665445367       -0.04131770193725
N           -1.20450287497067        0.98358719871792       -0.06370942224822
C           -2.09835358948850        2.14036896731563       -0.12838873415961
C           -1.74116536987634       -0.26082811660200       -0.09446146343442
O           -3.81736976331339       -2.34200420006965        0.06967733437139
N           -0.78758107363311       -1.30676079772787       -0.12964157841747
C           -1.30713156783374       -2.50545599247100       -0.39901017726833
H            3.91852420103247        1.32632008435346        1.04649524894373
H            4.09461000420725        1.21243754391966       -0.70683170228964
H            2.83179173874272        2.24088513756972       -0.00899765186134
H            3.75222997517279       -1.51934112427952        0.22034700194071
H           -1.47377746265218        3.02686710161903       -0.07803275985692
H           -2.63165779633290        2.12679136503561       -1.09107841215377
H           -2.81266551897534        2.14840011280680        0.69139483427252
H           -0.73045776473289       -3.37711962920872       -0.60886582385195
H           -2.42194188731385       -2.39618940914536       -0.39088159354524
H           -4.62658611777892       -2.92954266991036        0.24455833689155
H            1.59409591639615       -2.86463989525466        0.19386343082426
