25
 energy: 40.532072999427 xtb: 6.6.1 (8d0f1dd)
C            3.30767541888339        1.25334380614976        0.11351336010792
N            2.35907487531795        0.17634435418344        0.04654022599827
C            2.71499044964967       -1.16129757851425        0.08713587418889
N            1.55665840111420       -1.89875266204654        0.06784500327615
C            0.44775266087100       -1.12510517008988        0.03839836065872
C            0.94192945491743        0.20562240392703        0.02247166068029
C            0.07071223987571        1.29611414760673       -0.06480026042224
O            0.41131819479759        2.48568915318713       -0.12932522534732
N           -1.35901532770512        0.89685761807668       -0.07521250699002
C           -2.16903730148391        2.11022475710196       -0.10051415281336
C           -1.86223554023512       -0.38258193922544        0.05322520851401
O           -3.01233838225859       -0.80802912016388        0.11720071262088
N           -0.92879648632423       -1.43731899577300        0.05283998168804
C           -1.75749546558517       -2.73975870643200       -0.04254555498341
H            3.82699556888916        1.28757915806116        1.08281493465309
H            4.07872749429549        1.14508777493091       -0.66097084332507
H            2.79054277838392        2.19992362036754       -0.02992188684935
H            3.70487153105060       -1.57303203701947        0.16033939770343
H           -1.49043224781257        2.96968362945512       -0.04144074940139
H           -2.72642813757226        2.20099843070458       -1.02960946247293
H           -2.83030759466829        2.16274566258806        0.75884914325970
H           -0.99798782521632       -3.48555627914356        0.17303437350404
H           -2.05435590308679       -2.88733879247572       -1.08074582524458
H           -2.93311408875152       -2.96669973502372        0.52681028431557
H            1.56708520692503       -2.90144537586754        0.06972688758531
