25
 energy: 149.419934532048 xtb: 6.6.1 (8d0f1dd)
C            3.37610105749872        1.30084119897129        0.12813759240414
N            2.42009422194438        0.19941898068310        0.09383702733338
C            2.74389441770128       -1.11652713069915        0.17341439391365
N            1.61398498451929       -1.87090812117067        0.13167567097173
C            0.51503231039783       -1.05357781147918        0.03208974357567
C            1.02747385467954        0.26243705403850        0.00886902187784
C            0.12203453581433        1.36359069859340       -0.03827403781129
O            0.49114074323351        2.54496373299238       -0.08798850221340
N           -1.25702537318904        0.94707838790683       -0.04967314140482
C           -2.11678546602816        2.12641165655613       -0.12703307954373
C           -1.79507566360500       -0.30370378104481       -0.05963656164119
O           -3.52882732197291       -2.10107583896824        0.14766350375868
N           -0.83319854275302       -1.33303612055274       -0.07419374575240
C           -1.42757634317514       -2.51913851488719       -0.37640292192195
H            3.93610676818692        1.31757493140763        1.06947926108506
H            4.12056536163277        1.23251604485850       -0.67466688622960
H            2.87050712889220        2.26363070099245        0.02822924906700
H            3.74965199268668       -1.46341248587728        0.24721702780768
H           -1.45232970775194        2.98931654926270       -0.06045191918093
H           -2.64072357566747        2.18376129377355       -1.08353224675241
H           -2.83998338918400        2.14023714169955        0.67800660922425
H           -0.88226113608860       -3.43207339005673       -0.43444364423596
H           -2.45378048517311       -2.39299461991196       -0.78260254371935
H           -4.12391977569708       -2.94195822168427        0.36980231499406
H            1.66183445006672       -2.87563086263131        0.16667746721186
