25
 energy: 0.000000000000 xtb: 6.6.1 (8d0f1dd)
C            3.23720163006194        1.16630919979326        0.08434469647475
N            2.29877817382611        0.07527477071623        0.03981603040599
C            2.58028210190900       -1.21425402444508        0.03006176031096
N            1.43813958087363       -1.93419271955128        0.00098261760884
C            0.39035688448383       -1.05887472636071       -0.00790371836672
C            0.93510056364412        0.21347819449412        0.01709077491437
C            0.09450143893243        1.40504303904423       -0.00410947031874
O            0.49712751527797        2.54126714362870       -0.00342325688240
N           -1.25076640035757        1.06271879480407       -0.03085478223738
C           -2.21907211982101        2.15522099834493       -0.05001256985998
C           -1.81739487048744       -0.20012725993278       -0.04692818574614
O           -2.99983886758376       -0.37846417018721       -0.07008878229737
N           -0.92618586207120       -1.30210215599479       -0.03682761578324
C           -1.46982264913417       -2.64643102187190       -0.06029820460571
H            3.71247264356769        1.21471455160235        1.06488849150277
H            4.00791497605742        1.03430808813993       -0.67357694370751
H            2.69910007168542        2.09770118228144       -0.09130154882931
H            3.56654120610678       -1.63682992603973        0.04233140067262
H           -1.67107961066214        3.09322851271934       -0.02552706933167
H           -2.82428953597071        2.09428624779827       -0.95318082946668
H           -2.87644029173232        2.07745725625962        0.81450067533302
H           -1.17061996399332       -3.19584890659852        0.83242232437030
H           -1.14560257411436       -3.17511610292205       -0.95688275822323
H           -2.55549792440841       -2.55659984320617       -0.07459039797972
H            1.38130855184625       -2.94313852034425       -0.01389874181052
25
 energy: -0.766751487749 xtb: 6.6.1 (8d0f1dd)
C            3.27200889342919        1.15842340305977        0.09471955876648
N            2.32377990368661        0.08776161470939        0.04342247683373
C            2.60855131467195       -1.24062118414187        0.02992304828256
N            1.43446264940896       -1.94233144977639       -0.00153771718562
C            0.40762172772612       -1.05238025908144       -0.00640397988961
C            0.94521628097074        0.22440229412320        0.02063051588803
C            0.11619224607210        1.40271930859582       -0.00137596518143
O            0.52419878038503        2.56420773880431        0.01236430558116
N           -1.25456027853239        1.06658062650659       -0.05045070541655
C           -2.24733513554815        2.14923582176032       -0.08191539224004
C           -1.81041616034658       -0.18779814046921       -0.04930631727776
O           -3.00618997411373       -0.37016663032133       -0.07288795991152
N           -0.92322753816912       -1.29035849572330       -0.03473701458058
C           -1.46452916712148       -2.63094710009186       -0.05912083015225
H            3.74325153547709        1.20222161631809        1.08001738201808
H            4.04555842875799        1.01100524512880       -0.66065279433379
H            2.73877648700855        2.08853216492292       -0.08915342195201
H            3.58460016037617       -1.67101503279467        0.03718298663205
H           -1.68572910114415        3.08891004009684       -0.05497703470239
H           -3.05538180428065        2.08853648772392       -0.87082821911166
H           -2.90005726951678        2.07100859775234        0.76021137319625
H           -1.16315274048853       -3.18333238504668        0.83285045568026
H           -1.13688363728575       -3.16126016718887       -0.95541513958687
H           -2.54953376827169       -2.53837182916736       -0.07432204024983
H            1.36499283478471       -2.94593368352730       -0.02120367495936
25
 energy: 14.583874490513 xtb: 6.6.1 (8d0f1dd)
C            3.32298160893854        1.13558079912315        0.10977508423060
N            2.35061551571329        0.09408842016539        0.04841111051241
C            2.63195353897597       -1.26583285083051        0.02921948853934
N            1.42927703219065       -1.94260679671942       -0.00600039480355
C            0.42685769435752       -1.04050586571419       -0.00569402544413
C            0.95670683184759        0.24065019307165        0.02605886904467
C            0.13866170680117        1.40401545983328        0.00042502425705
O            0.54694915394239        2.57690358627666        0.04294453466481
N           -1.26745933657158        1.08307890701192       -0.09283648833828
C           -2.29791479460230        2.14512587154285       -0.12181386400563
C           -1.79605140828638       -0.16788544119232       -0.06246727329680
O           -2.99704572666478       -0.36032629406551       -0.07556378507813
N           -0.91621214377063       -1.26899683290916       -0.03260262520586
C           -1.45386852903100       -2.60680557558191       -0.05626852295024
H            3.78902227847879        1.17777435714556        1.10017600211824
H            4.10531808177490        0.96868336899890       -0.63611351527651
H            2.81022689917857        2.07368197330804       -0.08653815169235
H            3.59810729895600       -1.70666733584406        0.02727446299715
H           -1.72611555661154        3.08426761593303       -0.12031478735021
H           -3.34762999792379        2.06088909995841       -0.76072180549975
H           -2.92718827556219        2.06135191252245        0.72316504526067
H           -1.15203795730173       -3.16260920090023        0.83492115903100
H           -1.12415926554392       -3.13924654732307       -0.95225451524738
H           -2.53832526134902       -2.51189386554497       -0.07283548431211
H            1.34954527999968       -2.94368635609393       -0.03331164600771
25
 energy: 26.987180154761 xtb: 6.6.1 (8d0f1dd)
C            3.37040250688056        1.10778739743397        0.12258623736300
N            2.36823107556203        0.09263540529491        0.05104748869838
C            2.63961987067090       -1.27671030879031        0.02673492355011
N            1.42882240468444       -1.93750313296235       -0.01290671602135
C            0.43833035682078       -1.02828338545877       -0.00738933079533
C            0.96651948632166        0.25529007218421        0.02968240140889
C            0.14580239641618        1.41746528782258        0.00348815522108
O            0.55265868212517        2.58840546013663        0.06861066715866
N           -1.28418093066781        1.10315747576437       -0.12601849492141
C           -2.36051505288338        2.14001647099014       -0.14996456922027
C           -1.78820772750539       -0.15410348419129       -0.07103835117476
O           -2.98885504759848       -0.35969286863576       -0.07305840216085
N           -0.90666413683928       -1.24958197029450       -0.03098611674107
C           -1.44227246443442       -2.58620491008360       -0.05280498802437
H            3.82971819184556        1.14432101800917        1.11763560828433
H            4.16215157182943        0.91681993688319       -0.61017669240083
H            2.89102856857293        2.06173502340435       -0.08599252643087
H            3.60207596447669       -1.72811778952338        0.01370364803652
H           -1.80048831398435        3.08573736166939       -0.18219498714360
H           -3.53319095989915        2.02959664672242       -0.70278658643472
H           -2.94382394542984        2.05241804750053        0.72542783899393
H           -1.13913266888700       -3.14059961219979        0.83870103982807
H           -1.11261099398119       -3.11784088864907       -0.94934549090467
H           -2.52658938399283       -2.48877466006662       -0.06834360937887
H            1.34338521783296       -2.93894399078842       -0.04757725064267
25
 energy: 31.675193690426 xtb: 6.6.1 (8d0f1dd)
C            3.39130529300246        1.09232457536192        0.12846737269813
N            2.37365123908296        0.09093100376004        0.05026853337950
C            2.63845966794805       -1.27523614235940        0.02547232237746
N            1.43104008684228       -1.93256196471947       -0.01763701954093
C            0.44139051021956       -1.02234977475200       -0.01018773170051
C            0.97040289108522        0.26167893101819        0.03027747461924
C            0.14719907135405        1.42641860806837        0.00657582127689
O            0.55203822861946        2.59112570007806        0.08255108119194
N           -1.29307441891489        1.11140973439751       -0.13974475401318
C           -2.38953579378291        2.13917875669072       -0.16143754156892
C           -1.78697886993121       -0.15081878118299       -0.07293642732631
O           -2.98550975225408       -0.36421991481112       -0.06658345650575
N           -0.90139679869408       -1.24154293161131       -0.03062567803572
C           -1.43578180462432       -2.57907008117893       -0.05086464964901
H            3.84359009769383        1.12498383258686        1.12702978875262
H            4.18691732985662        0.88527421017551       -0.59576296522269
H            2.93396576583408        2.05522937182710       -0.08794318775200
H            3.60070689035768       -1.73017226813555        0.00438559224604
H           -1.84212176163208        3.08931626999714       -0.20820861528981
H           -3.60157082806449        2.01943715113380       -0.68307897723326
H           -2.94926587651942        2.05492991193346        0.72391890477013
H           -1.13091894992415       -3.13120912563414        0.84090466342613
H           -1.10688099027599       -3.10951813679179       -0.94789407359323
H           -2.52026048639413       -2.48189769618586       -0.06471979115602
H            1.34484392705170       -2.93461263749407       -0.05519279000343
25
 energy: 31.593052296865 xtb: 6.6.1 (8d0f1dd)
C            3.39263401730154        1.08985414369085        0.12932822114008
N            2.37341175604446        0.09038298641117        0.04886239051188
C            2.63627511658032       -1.27187276636149        0.02656865290086
N            1.43232816949581       -1.93092692142650       -0.01863301107609
C            0.44048953112814       -1.02173974296410       -0.01219891578644
C            0.97057761361046        0.26210145434276        0.02896521632420
C            0.14802154336173        1.42851814840708        0.00644453756041
O            0.55132849212809        2.59048251164444        0.08829773501688
N           -1.29461570757607        1.11111856993773       -0.14279350359599
C           -2.39222165495357        2.13941348556719       -0.16256724439816
C           -1.78836165343505       -0.15148591374291       -0.07317170508305
O           -2.98573078625320       -0.36596539932861       -0.06347477581245
N           -0.90095513682097       -1.24095331003832       -0.03145062696545
C           -1.43487755077032       -2.57947906558916       -0.05079514877175
H            3.84154546429292        1.12309276773692        1.12915079911047
H            4.18852049866127        0.87926194992991       -0.59228651351649
H            2.94007356761312        2.05334653275736       -0.08953260688463
H            3.59920330467624       -1.72668716562064        0.00188471010501
H           -1.84620280522815        3.08881623734438       -0.21458516732406
H           -3.60542723748013        2.01901031076563       -0.68060668187928
H           -2.94548605774937        2.05932422156233        0.72598459115201
H           -1.12930018236127       -3.13057520177434        0.84114025272964
H           -1.10600170935360       -3.10960389779926       -0.94776210955541
H           -2.51945617380096       -2.48319621619046       -0.06411733994243
H            1.34644224882475       -2.93320911708993       -0.05561785981242
25
 energy: 30.817113068157 xtb: 6.6.1 (8d0f1dd)
C            3.39202094907324        1.08941250466092        0.12936045714217
N            2.37300154456560        0.09012155005403        0.04698795880002
C            2.63436793201309       -1.26899797576605        0.02869501028804
N            1.43314619635506       -1.93004133305970       -0.01917969282911
C            0.43924300772565       -1.02177750576155       -0.01400260625675
C            0.97025736665379        0.26209139407591        0.02769137478457
C            0.14933477328757        1.42977043541240        0.00688517266872
O            0.55033331480637        2.59033823613913        0.09444379982377
N           -1.29564198248962        1.10955323707299       -0.14445024725135
C           -2.39231275498152        2.13924417390964       -0.16293551429863
C           -1.79012881728306       -0.15234823108755       -0.07268848897451
O           -2.98659644187267       -0.36724885366441       -0.06066356840063
N           -0.90127237287487       -1.24120810437461       -0.03218356323072
C           -1.43480541812744       -2.58051975378011       -0.05099542124269
H            3.83838047730255        1.12369192878008        1.13012418996918
H            4.18845002191309        0.87702545795949       -0.59013102001854
H            2.94169749487602        2.05280752316267       -0.09120759401428
H            3.59784303607768       -1.72382575706914       -0.00116561899068
H           -1.84632496140238        3.08763501805914       -0.21955082370488
H           -3.60002034627881        2.01789860879669       -0.67997526064686
H           -2.94176508855278        2.06386692790757        0.72794789154221
H           -1.12877093169099       -3.13094516441999        0.84107046044935
H           -1.10576500028591       -3.11035291316506       -0.94790747897243
H           -2.51940643765935       -2.48471998817918       -0.06400917808474
H            1.34694910678590       -2.93244281349129       -0.05512634240390
25
 energy: 30.149256757182 xtb: 6.6.1 (8d0f1dd)
C            3.39159509369453        1.08976688548440        0.12933542487341
N            2.37306087241892        0.09014718613862        0.04576185868102
C            2.63380519595565       -1.26821527402000        0.03109166189261
N            1.43329697204709       -1.92985751797055       -0.01930035763549
C            0.43875123349026       -1.02184913935238       -0.01483480195073
C            0.96993779004575        0.26226142460819        0.02700752273663
C            0.15034738543073        1.43014843110824        0.00708263001037
O            0.54934371985475        2.59076916543240        0.09708981300339
N           -1.29650628993158        1.10852275519409       -0.14529432409518
C           -2.39254415263983        2.13882771938324       -0.16332249971172
C           -1.79107137205831       -0.15263230626101       -0.07222614881967
O           -2.98726387727910       -0.36804585418157       -0.05920139764065
N           -0.90154337454930       -1.24146684947129       -0.03246698567804
C           -1.43490356100141       -2.58096774528373       -0.05121010276717
H            3.83703902927927        1.12446613950303        1.13049828385709
H            4.18862311882557        0.87716589309872       -0.58926475526410
H            2.94143472863792        2.05302069042909       -0.09176758687701
H            3.59725096430160       -1.72336533153881       -0.00377894436532
H           -1.84612886338362        3.08674092502879       -0.22219267472891
H           -3.59469164175284        2.01648031118715       -0.67939496753292
H           -2.93988287644150        2.06647433844853        0.72948759195980
H           -1.12887509184422       -3.13132413835514        0.84089454873091
H           -1.10572669034008       -3.11068300408512       -0.94811485624109
H           -2.51948464294059       -2.48512988149845       -0.06424256958976
H            1.34635099811657       -2.93222622085444       -0.05460246670016
25
 energy: 29.194113816971 xtb: 6.6.1 (8d0f1dd)
C            3.39130230695368        1.09037052396778        0.12950418776395
N            2.37339297912956        0.09026938718019        0.04432858483803
C            2.63369219947089       -1.26823369986202        0.03585212506604
N            1.43321400365687       -1.92977783780942       -0.01918432833094
C            0.43850795482246       -1.02186268214450       -0.01562970707432
C            0.96948318256976        0.26270588067506        0.02627699585245
C            0.15165085541517        1.43032797205694        0.00700624299063
O            0.54764824917528        2.59164287759349        0.09833400094359
N           -1.29802049699460        1.10753999220759       -0.14630305097286
C           -2.39371866269809        2.13810887405426       -0.16414506560400
C           -1.79195361148897       -0.15267848713127       -0.07174120171963
O           -2.98800077234296       -0.36925608760212       -0.05783415038144
N           -0.90174205209652       -1.24175914931815       -0.03273912022528
C           -1.43496499245025       -2.58121103708737       -0.05156850948676
H            3.83629327921962        1.12511639573994        1.13092344245305
H            4.18906511262134        0.87829326030045       -0.58858622858107
H            2.94058112659684        2.05348717788135       -0.09165683161400
H            3.59672086926967       -1.72387491976056       -0.00830536390448
H           -1.84669930565926        3.08572820170956       -0.22514830829025
H           -3.58715065120191        2.01419121669166       -0.67766688556650
H           -2.93767838139780        2.06968865478474        0.73175593119904
H           -1.12919978166237       -3.13174054529792        0.84056244651909
H           -1.10565784666863       -3.11089138501746       -0.94847219916664
H           -2.51952482880426       -2.48512808375190       -0.06475998002663
H            1.34497393250066       -2.93202789788831       -0.05376913053376
25
 energy: 28.811162396347 xtb: 6.6.1 (8d0f1dd)
C            3.39137853865570        1.09051597160579        0.12982128087542
N            2.37355340710444        0.09034040214936        0.04413673930226
C            2.63402887564399       -1.26893352238456        0.03941788661417
N            1.43299293905025       -1.92977318061446       -0.01887497545765
C            0.43868272078248       -1.02179773792076       -0.01579649955621
C            0.96931140642884        0.26296932001902        0.02610948954875
C            0.15194281269563        1.43019200716027        0.00651939266305
O            0.54681113465901        2.59208240270117        0.09685272611487
N           -1.29882766540876        1.10760415719738       -0.14663775398139
C           -2.39495271658567        2.13779991126910       -0.16474670021391
C           -1.79197259477702       -0.15247544176550       -0.07192416946814
O           -2.98808440519678       -0.36982659841136       -0.05803614622907
N           -0.90166287372035       -1.24180271304396       -0.03291329583139
C           -1.43489643445840       -2.58104961013852       -0.05177718659422
H            3.83677414363589        1.12483339557221        1.13109450958873
H            4.18923101585193        0.87911685448364       -0.58865691120441
H            2.94014785051327        2.05368582364607       -0.09089983167613
H            3.59667436977647       -1.72450759425437       -0.01117428632261
H           -1.84769589527654        3.08556542055239       -0.22614690936939
H           -3.58458692908642        2.01307808713344       -0.67578572433600
H           -2.93652548766326        2.07078061532906        0.73310313023841
H           -1.12934085278292       -3.13173235229764        0.84037516442541
H           -1.10560835662027       -3.11084371857986       -0.94866257374196
H           -2.51946707531618       -2.48482929228483       -0.06506694021448
H            1.34430674003090       -2.93196400495103       -0.05329651902681
25
 energy: 28.674257371999 xtb: 6.6.1 (8d0f1dd)
C            3.39148901416641        1.09040580023955        0.13015620699946
N            2.37346200589392        0.09037408510643        0.04463347913281
C            2.63437137170486       -1.26966532954584        0.04275756097266
N            1.43275547483340       -1.92975735902802       -0.01851339353219
C            0.43890617262689       -1.02172754255650       -0.01582827153267
C            0.96928053943511        0.26303905537649        0.02617562100828
C            0.15158706297039        1.42995251788622        0.00594382297949
O            0.54648995346237        2.59218271585384        0.09463610271252
N           -1.29914682107870        1.10806014062316       -0.14652824634156
C           -2.39601715702715        2.13772274330083       -0.16517257589144
C           -1.79169075403623       -0.15229182121931       -0.07248945363584
O           -2.98791155048019       -0.37002500262094       -0.05903714376792
N           -0.90151659862730       -1.24175680323093       -0.03315892997972
C           -1.43479898017030       -2.58081805227801       -0.05190110967078
H            3.83757387074898        1.12420434065722        1.13111611092459
H            4.18907739795260        0.87950408774861       -0.58902944172911
H            2.94001956378942        2.05371508624627       -0.09005684059910
H            3.59678430592091       -1.72469159633411       -0.01368179807893
H           -1.84871078122327        3.08574170587638       -0.22636992992801
H           -3.58403618443532        2.01261935937656       -0.67393834992207
H           -2.93571424401154        2.07108919642111        0.73391076343605
H           -1.12929957850589       -3.13151468688906        0.84029108809498
H           -1.10560646306430       -3.11079094227787       -0.94874294696952
H           -2.51939363744465       -2.48458487851440       -0.06518029221710
H            1.34426068453581       -2.93195821804566       -0.05295813631755
25
 energy: 28.610019335726 xtb: 6.6.1 (8d0f1dd)
C            3.39148535073597        1.09015808096844        0.13047020687900
N            2.37305133507818        0.09042715666003        0.04567339941793
C            2.63449747270052       -1.27013362523243        0.04698668542798
N            1.43252246044777       -1.92971149564899       -0.01820839765033
C            0.43899823610641       -1.02165895687934       -0.01606172794494
C            0.96932501116805        0.26291820281599        0.02627291495272
C            0.15058256179670        1.42968700717247        0.00542779072201
O            0.54652777748705        2.59191804102022        0.09268636939860
N           -1.29902135226549        1.10858170226043       -0.14608400679739
C           -2.39683562589783        2.13778811102505       -0.16550364135971
C           -1.79138049671981       -0.15228068317524       -0.07328718271596
O           -2.98769698226271       -0.36991902423250       -0.06048633164003
N           -0.90142592983378       -1.24167264073630       -0.03360398481440
C           -1.43472229424280       -2.58067192999816       -0.05199634143646
H            3.83825853172400        1.12359140015101        1.13107502497449
H            4.18861724950086        0.87931370133763       -0.58941854001604
H            2.94016399413717        2.05362625334355       -0.08945238530972
H            3.59687307894147       -1.72409289559510       -0.01701188864514
H           -1.84950481696758        3.08596801493787       -0.22665336754895
H           -3.58411091937299        2.01241215976480       -0.67216180873110
H           -2.93474346034908        2.07136462647617        0.73461183596362
H           -1.12904841377913       -3.13118073835218        0.84025756172102
H           -1.10567092832032       -3.11084403181968       -0.94876855765566
H           -2.51934141566690       -2.48455846799697       -0.06512390449357
H            1.34481424379047       -2.93200136609474       -0.05260582655065
25
 energy: 28.558366841209 xtb: 6.6.1 (8d0f1dd)
C            3.39136337482127        1.09010248746412        0.13046900871958
N            2.37276184748572        0.09050387421834        0.04611858064905
C            2.63425146490857       -1.26987622798015        0.04945072117546
N            1.43249064109755       -1.92970027314496       -0.01832032469991
C            0.43884740141182       -1.02163783438322       -0.01654813885977
C            0.96935375699606        0.26278380575744        0.02612508607296
C            0.14990545099657        1.42967271830478        0.00559187236967
O            0.54666752092289        2.59158717847545        0.09336109896235
N           -1.29868689099571        1.10847090542650       -0.14587787762293
C           -2.39674790777262        2.13784057177277       -0.16556061474665
C           -1.79146271128116       -0.15252112203920       -0.07342121961043
O           -2.98776637270474       -0.36972942614042       -0.06065775385964
N           -0.90150763088888       -1.24165187643136       -0.03390239849034
C           -1.43473744346186       -2.58079328392398       -0.05203639767332
H            3.83804923032583        1.12378633546417        1.13108213037925
H            4.18841881821672        0.87873727715921       -0.58926375052304
H            2.94041688384622        2.05356673486303       -0.08978447318727
H            3.59669719802418       -1.72328011458147       -0.01932680913644
H           -1.84938800366063        3.08585643136172       -0.22724600407663
H           -3.58374395545406        2.01227861514795       -0.67197705384678
H           -2.93431695260763        2.07192708034041        0.73468385945634
H           -1.12883171141491       -3.13109258156933        0.84024234281781
H           -1.10571494624424       -3.11097562936557       -0.94877977831485
H           -2.51935043235758       -2.48477563976588       -0.06502377604703
H            1.34524603772683       -2.93205140425836       -0.05236443376012
