25
 energy: -42.430268198449 xtb: 6.6.1 (8d0f1dd)
C            3.39236483286506        1.09289763671339        0.12534232730199
N            2.40148003895799        0.06239546287182        0.04596999573297
C            2.64744990512665       -1.27403509333089        0.04631843326570
N            1.46463550667457       -1.94133524838920       -0.01610311147422
C            0.45743632624048       -1.03614978484032       -0.02441455720707
C            1.01676876350313        0.24058672504795        0.01499476619356
C            0.24766228493064        1.42492113476156        0.01074216683257
O            0.64645272353200        2.57813916869633        0.14407096895078
N           -1.17207134409152        1.13063726450570       -0.15118084750049
C           -2.06491899346679        2.17796197860841       -0.16632248418957
C           -1.73896150314555       -0.13467889435001       -0.06469904551419
O           -2.93474939584401       -0.32454901749780       -0.02165404791721
N           -0.87506347837446       -1.24188850753481       -0.03637230248672
C           -1.43620687641785       -2.57916858077498       -0.05285577017315
H            3.83515211780938        1.13752216509904        1.12420555004795
H            4.18841652478112        0.89164407365917       -0.59532081060238
H            2.92553140976738        2.05005674831524       -0.08978032336211
H            3.60989587900336       -1.73120649459010        0.01586604369604
H           -1.66341610398646        3.16379727603819       -0.21943435409483
H           -4.15662899787667        2.07162864130845       -0.62773632266484
H           -3.06247046633796        1.99417742905174        0.19129690753334
H           -1.13634455409773       -3.13320906905682        0.83919846333610
H           -1.11082848760179       -3.11303585302746       -0.94836102281122
H           -2.52182311177517       -2.48144438183272       -0.06754761815723
H            1.37190983936394       -2.94294960720971       -0.04617555762230
