72
 energy: -3.859679189261 xtb: 6.6.1 (8d0f1dd)
N           -1.51027163473464        2.83057715615889        2.22557818719202
C           -1.54922078131533        2.18629566216009        1.14928216599883
C           -2.74292334155716        2.07786767062798        0.24110728583740
C           -3.30227666784500        0.66581088805774        0.31496500063471
C           -4.29677920601371        0.26930144443136       -0.58146175431223
C           -4.85021612948664       -0.99501165238411       -0.52823943529299
O           -5.83089984722744       -1.45785194027923       -1.35400543495135
C           -6.40322050642259       -0.57711548863535       -2.28611519473811
C           -4.40146527445896       -1.91358153146495        0.44709180265866
O           -5.00626345213682       -3.13344974442914        0.42380952449471
C           -4.67149179302354       -4.06527736814374        1.41942174752446
C           -3.42088671381376       -1.51791109924506        1.33553854322187
C           -2.87940363957079       -0.23876524555158        1.26986127335204
C           -2.18007923985847        2.31566532265971       -1.19375018367934
C           -1.25221598033694        1.18519633090832       -1.67835178808384
C            0.02224657785155        1.13414938804245       -0.91454639632271
N            0.64046336632753       -0.04822111807856       -0.55981255303368
C            2.00949742818968       -0.04082204256733       -0.15878503673472
C            2.94473531620943       -0.55051509692426       -1.27770384062375
C            4.37009922574656       -0.44237488111266       -0.83961311721355
C            5.08675218942021        0.72198761470059       -1.04458644121212
C            6.39785560851949        0.83441105199164       -0.60544340748792
C            7.00972189522009       -0.21560267436282        0.05541733458021
O            8.28817749044172       -0.21591526510666        0.52648901501423
C            9.08066767102992        0.92372627412206        0.31575637198070
C            6.28331880095699       -1.40676065708355        0.28008134539766
O            6.96675541869841       -2.38783968305770        0.93348929553527
C            6.33174172040507       -3.61933008892996        1.15803984115081
C            4.97831179641009       -1.50082685079126       -0.16336699115433
C           -0.04663676856034       -1.30546228463443       -0.61989857438515
C           -3.90414601348794        3.04496954465672        0.63057018646647
C           -4.56683120620630        2.63009489853337        1.97395885041528
C           -3.43775193639180        4.51498228727577        0.52645910882983
H           -4.64776226159047        0.96857193193838       -1.32301179068092
H           -6.84659776954298        0.29706998578188       -1.79804843432812
H           -7.18854487400079       -1.14853960350513       -2.77880829576394
H           -5.67550628201525       -0.24650112950497       -3.03542456314827
H           -4.88274448784138       -3.67883468397644        2.42205652423226
H           -5.30247514411706       -4.93158120582071        1.22804852504135
H           -3.61919380875967       -4.36476136033051        1.36075326814871
H           -3.06834460329456       -2.19160190690644        2.10008024885802
H           -2.13384653648229        0.04514767686389        1.99619414813537
H           -3.00347276818635        2.40382802617618       -1.90361221263612
H           -1.62125581944124        3.25207037394195       -1.21522783092583
H           -1.79125977889842        0.23912890387007       -1.62861288467913
H           -1.01370139642918        1.37939211180976       -2.73357800633180
H           -0.68078394660008        1.67212784229933        0.67064438565419
H            0.66656911925411        1.99223486876795       -0.96453743209279
H            2.12835886731582       -0.67178109680247        0.72930431608278
H            2.30846859021069        0.97488973810967        0.10768848016438
H            2.77533988772405        0.05476501141280       -2.16887251560682
H            2.69109458368361       -1.58617165999134       -1.50949941008861
H            4.63081635640239        1.55160206745332       -1.56377796752143
H            6.93530925618450        1.75021428135677       -0.79303784206227
H            8.66107192252952        1.80613649812144        0.81079063065457
H            9.21312693078473        1.13477693656749       -0.75112991488153
H           10.04766273346487        0.69002320654524        0.75824793019316
H            7.07146410176649       -4.24069882793229        1.66100289194778
H            5.45398252012094       -3.51127095165217        1.80428121855975
H            6.03592082972483       -4.10069075229212        0.21961964395216
H            4.41561979896713       -2.40776085493825       -0.00244038119117
H           -0.21218351156610       -1.63334833654456       -1.65272123522110
H           -1.01476125303415       -1.23738411168589       -0.11646862805097
H            0.55641379579630       -2.05690550352408       -0.11352919215212
H           -4.68789955993460        2.93210324508007       -0.12221567426760
H           -3.85519909540374        2.70877910711439        2.79215916589075
H           -4.97098387991926        1.61305669284121        1.96250126975396
H           -5.39196485604586        3.31214664241916        2.18216607025969
H           -2.56467088876257        4.70101127988032        1.14943128475801
H           -3.16746740361010        4.79101886645308       -0.49760721613521
H           -4.21776352574244        5.20367434774449        0.84584328459801
H           -0.62076508028088        2.84482917887434        2.71900886582637
