72
 energy: 47.004721269120 xtb: 6.6.1 (8d0f1dd)
N           -1.57887765593512        3.03450442187567        2.16815214180142
C           -1.54353958448657        2.30749535100522        1.14526934059230
C           -2.71028210608234        2.13566214294660        0.20733192188356
C           -3.24621931785220        0.72200111336217        0.27187832951987
C           -4.26730633470546        0.34757415364271       -0.60370252911188
C           -4.85693030143308       -0.89836426442649       -0.51886431774951
O           -5.86997937279962       -1.34488083115310       -1.31835774715944
C           -6.42716100398738       -0.46290084436917       -2.25801092790464
C           -4.41667321418676       -1.81203762533506        0.46485335731913
O           -5.05609825667109       -3.01441802712496        0.47258768184706
C           -4.69747039412927       -3.94390149454784        1.46074322873945
C           -3.41877823140006       -1.42956168046906        1.33964348174628
C           -2.84411932019515       -0.16670201524868        1.24551238184157
C           -2.10848116789543        2.36616864905754       -1.23163818575158
C           -1.20005985700349        1.20179298208868       -1.72688317311878
C            0.10633784835952        1.11294935873122       -1.01897411354048
N            0.67595245808668       -0.06677697069307       -0.55990465609659
C            2.04410018255738       -0.07430618497864       -0.16139912125077
C            2.98496343882941       -0.58679900234759       -1.27644515950603
C            4.41176022426792       -0.47568703386314       -0.84381351602863
C            5.12689435886482        0.68951293349909       -1.05281421217257
C            6.43925076188277        0.80688666915626       -0.61599537813668
C            7.05620931884245       -0.23892908958189        0.04792467694286
O            8.33541777257129       -0.23282882239040        0.52015413057055
C            9.12329876998656        0.90870946970877        0.30419701490353
C            6.33191437377433       -1.42918418696995        0.27978877282758
O            7.01858397174594       -2.40496215326028        0.94033423095521
C            6.38805474023365       -3.63592067354195        1.17565033818644
C            5.02591592597656       -1.52835245251236       -0.16282996026778
C           -0.02582043522731       -1.31842707206792       -0.62054422059458
C           -3.92110557977867        3.00197953428019        0.65392722441204
C           -4.83502440068995        2.09233332051271        2.11483441917456
C           -3.53342055174752        4.50313545637147        0.38855691126595
H           -4.60894937984824        1.05267458992053       -1.34434966186283
H           -6.83875723004070        0.43222196144266       -1.78101137105114
H           -7.23605401609652       -1.01799911668590       -2.73128381189978
H           -5.70009459388494       -0.16596760160913       -3.02211571858330
H           -4.88205964601659       -3.55275302589233        2.46682340461710
H           -5.33452775570359       -4.80931226001920        1.28973243266967
H           -3.64663276707962       -4.24387068834423        1.37926272645007
H           -3.07354192140282       -2.09814657369831        2.11153048053990
H           -2.09283074059196        0.11909204322282        1.96295626420883
H           -2.91783631966009        2.47548054510984       -1.95736764432764
H           -1.51150846839144        3.27736809657869       -1.25626538204825
H           -1.74558425362657        0.25924362628326       -1.64774080992107
H           -1.01650448966830        1.37905508197918       -2.80476838297418
H           -0.66076594838158        1.74330702864487        0.78836836408945
H            0.74303189273419        1.97709697506771       -1.03734277795713
H            2.16190690681657       -0.70114389618435        0.73051898313087
H            2.34732996538762        0.93840163883092        0.10646051007926
H            2.81426766550840        0.01118055284103       -2.17074817029263
H            2.73252614527124       -1.62485197670150       -1.50237673546024
H            4.66555357510051        1.51443385159671       -1.57370017163254
H            6.97536688787507        1.72317479456047       -0.80701106193786
H            8.69708212034475        1.79099935121739        0.79365861977923
H            9.25782392290423        1.11711592046797       -0.76326059668487
H           10.09121251547776        0.68553025917913        0.74997708596525
H            7.12910582373039       -4.25310262156196        1.68309707126720
H            5.51128219972595       -3.52380772520453        1.82193851248791
H            6.09186808836029       -4.12620969948422        0.24204010608473
H            4.46736893431321       -2.43649195462098        0.00644251468670
H           -0.17172256513756       -1.67099256563629       -1.64983710248352
H           -1.00631416612549       -1.22107284529713       -0.14756392135402
H            0.54292031306376       -2.07431733117566       -0.07883155575409
H           -4.81482799132913        2.82100250566513        0.07211104845070
H           -4.18488582877752        2.02235250504446        2.98392437560523
H           -5.29601797030650        1.09761264858224        1.89814977061722
H           -5.63239423829429        2.79642369013825        2.37167763618075
H           -2.49957192086491        4.72832393891526        0.66561412074194
H           -3.61027822348134        4.71328272740779       -0.68087534657377
H           -4.09917543330850        5.25380289434663        0.92175664316518
H           -0.70366428161203        3.10788144499878        2.67620397627565
