72
 energy: 103.930870677196 xtb: 6.6.1 (8d0f1dd)
N           -1.60731447332414        3.31281933801995        1.99315054114648
C           -1.47371479152551        2.45954271764500        1.08565780211503
C           -2.59298876606010        2.24052846329194        0.09391943155302
C           -3.20688432167184        0.85832160653584        0.24313098137312
C           -4.23945450975912        0.47934421137433       -0.61962116351483
C           -4.86220264426941       -0.74908356971291       -0.50191457129607
O           -5.89755463514775       -1.18932529456300       -1.27240289779920
C           -6.45711642784527       -0.31595710795325       -2.21812559177229
C           -4.43155739109876       -1.65353413364400        0.49570664754503
O           -5.09691943599514       -2.84210715739281        0.53538171363788
C           -4.73591027624185       -3.76842439803467        1.52470178942802
C           -3.40146546212286       -1.28400783376037        1.33911212218506
C           -2.80035519034270       -0.03418562900087        1.21549773694969
C           -1.95847352258524        2.37733678272966       -1.33169877409727
C           -1.10126839577919        1.17068031190982       -1.80118001400796
C            0.22023382544392        1.05012226882363       -1.17336723717012
N            0.69878065870812       -0.05905948931091       -0.53617692116487
C            2.08563253839637       -0.10073611681186       -0.15532316477117
C            3.02237149924891       -0.63545292098643       -1.26211976516217
C            4.45573537067874       -0.51838443699563       -0.82749803600517
C            5.16968353070494        0.64239886450488       -1.05858282710902
C            6.48490989487067        0.76863768955374       -0.63338166051577
C            7.10845387301360       -0.26877551622559        0.03551973760500
O            8.39065980179910       -0.26039058303570        0.49518930715090
C            9.17267097192924        0.88739361605085        0.28570592106252
C            6.38884798217086       -1.46121314158082        0.27865510998366
O            7.08472829840918       -2.42883487269539        0.93769374806818
C            6.45729684584254       -3.65823201233621        1.19585324356107
C            5.07900330436910       -1.56703044687239       -0.15080882965794
C           -0.00794368566123       -1.31266630965397       -0.60997282991606
C           -3.65707158122240        3.27381806916439        0.24839196111414
C           -5.55674038586388        1.10034982508602        2.77112845982038
C           -3.43163241994657        4.71578439610284        0.00975829301711
H           -4.57085566830943        1.17794945898322       -1.37204994894211
H           -6.82727934508538        0.60417400755935       -1.75378813742656
H           -7.29272805898031       -0.86126566799388       -2.65563553033240
H           -5.74229810881948       -0.06117932813963       -3.00846208693685
H           -4.88841196454361       -3.36869925373457        2.53341005582036
H           -5.39144791966413       -4.62410405931713        1.37219288469245
H           -3.69286978704510       -4.08826162701981        1.41333869778093
H           -3.07914179130589       -1.94149852277200        2.13227460841384
H           -2.02378636443442        0.24143234723880        1.91274618612039
H           -2.76431942093682        2.51094744136849       -2.05428184148635
H           -1.34960832607816        3.28376149348644       -1.35374713152639
H           -1.68547990707937        0.25889014080001       -1.69057249280481
H           -0.94320880572693        1.33507833429212       -2.87664298819672
H           -0.57580303449751        1.85301920799207        0.91389714020070
H            0.84243061952870        1.92710913390708       -1.10972292592755
H            2.18194762860966       -0.73674341555067        0.72931811292710
H            2.40901596239684        0.90771724654210        0.11451054958067
H            2.85871980522493       -0.04719755957466       -2.16749781207802
H            2.77563298969361       -1.67631024422374       -1.47688188509586
H            4.70829732727744        1.46476718296638       -1.58524359711292
H            7.01387769566907        1.68618520060690       -0.83633013173923
H            8.74094155664904        1.76877964705889        0.77208101879827
H            9.31199238661524        1.09332354527287       -0.78104950755626
H           10.13854970746879        0.66532939973791        0.73718984081161
H            7.20425425913169       -4.26243114536608        1.70843144420438
H            5.58261537237981       -3.54084032007984        1.84504446748852
H            6.15845426125233       -4.16283282562073        0.27069923654825
H            4.52245742685331       -2.47469029930010        0.02589384104784
H           -0.11942332845191       -1.67187380712304       -1.63908176878372
H           -1.00142435006099       -1.20317188008007       -0.16831403288687
H            0.53915153689753       -2.05989550734584       -0.03958066536298
H           -4.67173254663128        2.96536291158841        0.43535420018387
H           -4.73262783877095        0.99898058544573        3.43330838005766
H           -5.98116774028635        0.23675690745465        2.31535016099267
H           -6.07897886308541        2.03462797543162        2.75067573346748
H           -2.38120548308090        4.96325252173420        0.03864681904039
H           -3.85368136541416        5.04513839543726       -0.94790502511836
H           -3.93737735971400        5.29822812699959        0.77527814881105
H           -0.82454727992118        3.42831885831038        2.63347586516344
