72
 energy: 105.107184797762 xtb: 6.6.1 (8d0f1dd)
N           -1.62163273313744        3.28122796356744        2.02251660795844
C           -1.48890569739687        2.44969098035205        1.09783101554311
C           -2.60712854110492        2.22631364372898        0.11626093731539
C           -3.20238159348494        0.83406798128743        0.24051657088452
C           -4.22977222386399        0.45673176317336       -0.62903172018584
C           -4.85988811920739       -0.76941241654720       -0.50754322941025
O           -5.90374987963173       -1.19887848808286       -1.27342372441619
C           -6.45734902256523       -0.31783182256608       -2.21831661993150
C           -4.43153204461412       -1.67508244068249        0.49096119691119
O           -5.10746092703994       -2.85535552482378        0.53720746413733
C           -4.73478878241444       -3.78785019650064        1.51756969107946
C           -3.40346993813687       -1.30744633370313        1.33878762026715
C           -2.79555918439688       -0.06006738873043        1.21162641701269
C           -1.96976197758305        2.38441754261413       -1.30698742725966
C           -1.10860723312720        1.18222752308503       -1.78559782427820
C            0.22245951638096        1.04603707079367       -1.17337717371545
N            0.69304802806257       -0.05506917552626       -0.51749345616232
C            2.08557411893455       -0.09925704044166       -0.15845667945753
C            3.02290217109390       -0.63142088467089       -1.26770443596190
C            4.45660894501884       -0.51482636431612       -0.83058431143400
C            5.17140402164690        0.64639705366491       -1.05816001083242
C            6.48803187434240        0.76899906106722       -0.63325541958974
C            7.11298053855355       -0.26838596000123        0.03434415819797
O            8.39175102799385       -0.25657081838625        0.49696242554267
C            9.17741704245953        0.89009287840126        0.28590876932067
C            6.39123275120447       -1.46038539118344        0.27726936375201
O            7.08547548456681       -2.42693541031084        0.93775806108152
C            6.46036253943652       -3.65813481703828        1.19443116148665
C            5.08075604692405       -1.56432128417143       -0.15392823895730
C           -0.00934738176935       -1.30997729839851       -0.60529273735326
C           -3.67011741360163        3.24978611461825        0.31591944583811
C           -5.44936965749817        1.21496132072829        2.61668347652796
C           -3.46489379886417        4.68223354040884        0.04960706967158
H           -4.55974778606407        1.16123376711679       -1.37577440329952
H           -6.82536289335537        0.60185048428524       -1.75316730612282
H           -7.29681388894191       -0.85371143455580       -2.65908670457065
H           -5.73896231615546       -0.06511843114127       -3.00632845787531
H           -4.88673750086255       -3.39237989556281        2.52682082498103
H           -5.38451345218105       -4.64724792786826        1.36437028408788
H           -3.68937361339916       -4.09567694959059        1.40485817060228
H           -3.08030721210868       -1.96746408007533        2.13048123168633
H           -2.03251762524833        0.21955120742289        1.91984525763684
H           -2.77777348675145        2.52497762544912       -2.02858116239574
H           -1.36224025282797        3.29235152667938       -1.32100490719412
H           -1.69322535060786        0.26940237327300       -1.68254576743534
H           -0.94312323524892        1.35460263088478       -2.85714335409569
H           -0.59295449337160        1.85204999978111        0.90060526064345
H            0.84432860651337        1.92307840908789       -1.11608357051570
H            2.17924887315465       -0.73710604612821        0.72358897472985
H            2.41316442313063        0.90759911185832        0.11144270790203
H            2.86564037094403       -0.04727061601850       -2.17474701500086
H            2.78037786073584       -1.67403226035588       -1.48262510673604
H            4.71132769781538        1.46804285251736       -1.58553708495679
H            7.01959542823696        1.68540031073653       -0.83455719932926
H            8.74513377995181        1.77063782611847        0.77314848119416
H            9.31621080909531        1.09582679483702       -0.78051163431898
H           10.14305079359853        0.66839117490258        0.73771834664516
H            7.20757675276903       -4.26281453431821        1.70671439386415
H            5.58638908522647       -3.54130687403819        1.84387337217545
H            6.16384111699239       -4.16185713401734        0.26834207294294
H            4.53076779178247       -2.47661678824219        0.02204254966431
H           -0.10692441132994       -1.66837468574595       -1.63608243296892
H           -1.00760741158214       -1.20193792856104       -0.17571605596436
H            0.53764944993546       -2.05285385179604       -0.03046777114469
H           -4.68424247330191        2.93466647926112        0.39847144111076
H           -4.64064003818510        1.13779688882022        3.29756661325008
H           -5.88675323381007        0.34105939746873        2.17838072718442
H           -5.98991668720158        2.14381379354588        2.66098397471226
H           -2.40818782812427        4.88452567720377        0.05197527112633
H           -3.92712307827132        4.97110556813013       -0.89747830570917
H           -3.93047741714919        5.29901586220091        0.81341418430950
H           -0.82344024343303        3.44118254108493        2.63185788246293
