72
 energy: 2.816296292360 xtb: 6.6.1 (8d0f1dd)
N           -1.52964688615659        2.88885484480777        2.21228360882603
C           -1.54782803289850        2.21999790179830        1.15049208840192
C           -2.73805467723820        2.09317529148803        0.23809157872338
C           -3.28616645470379        0.68044410173053        0.30308486805182
C           -4.28910204209673        0.29153358676356       -0.58688383111118
C           -4.85229763488164       -0.96786386929955       -0.52527610780876
O           -5.84272776532878       -1.42610575227667       -1.34365956787692
C           -6.40971852714394       -0.54480153712076       -2.27820728843618
C           -4.40598752329993       -1.88499274030167        0.45232968814564
O           -5.02144860594005       -3.09984089232738        0.43798677379544
C           -4.67888311134424       -4.03081572833675        1.43125985111729
C           -3.42106865384010       -1.49306559423813        1.33740697065579
C           -2.87086705487228       -0.21833346233084        1.26430843695702
C           -2.16356778075960        2.33137085547263       -1.20107449035167
C           -1.23977942691009        1.19168195518018       -1.69097432870601
C            0.04456190736988        1.13608537151778       -0.94200659078268
N            0.64835258629938       -0.05177793184545       -0.55623245640171
C            2.01839861004458       -0.05042601548526       -0.15929008474307
C            2.95558131625930       -0.56065124187178       -1.27723772618072
C            4.38172362842600       -0.45177544710072       -0.84176042798719
C            5.09815622674780        0.71268215628916       -1.04763397138108
C            6.40963202493465        0.82636122730305       -0.60893367530320
C            7.02305852704628       -0.22244665745469        0.05267904178173
O            8.30153484604026       -0.22073295764960        0.52469543510739
C            9.09274101156119        0.91938856379513        0.31231966893521
C            6.29724876170584       -1.41303052406908        0.27939669319438
O            6.98136759557984       -2.39263705019058        0.93524789310303
C            6.34766786164252       -3.62395305480571        1.16285574781844
C            4.99196047706598       -1.50839645214999       -0.16409890669737
C           -0.04127537161604       -1.30871610217382       -0.61981654125907
C           -3.93740468179839        3.00653124198051        0.67547428705159
C           -4.63853938494931        2.48168312495070        2.00416935396157
C           -3.47797610358449        4.49702526235389        0.50330823811913
H           -4.63665281279201        0.99239830959874       -1.32873084318237
H           -6.84405762072934        0.33553953515962       -1.79343797958121
H           -7.20169947213926       -1.11159690615589       -2.76573831301382
H           -5.68158929271872       -0.22373867043812       -3.03132908116194
H           -4.88246929019279       -3.64320599647931        2.43504264211766
H           -5.31134777766274       -4.89704141942385        1.24559181183247
H           -3.62677060969543       -4.32995762011045        1.36609366339405
H           -3.06987021654617       -2.16477419915431        2.10382627063397
H           -2.12303422483416        0.06679718288773        1.98710550477139
H           -2.98030323573567        2.42527590379281       -1.91869727664105
H           -1.59031698907349        3.25845858665774       -1.22564701666452
H           -1.77813467445336        0.24507270672215       -1.63339444537596
H           -1.01952377540760        1.38001540613280       -2.75375206343738
H           -0.67592657423804        1.69020088078188        0.70503739286290
H            0.68843122098507        1.99252082757722       -0.98626775304276
H            2.13808698947133       -0.68022151375403        0.72985554380346
H            2.31793919930093        0.96407343611666        0.10704944919353
H            2.78560480652416        0.04255442632448       -2.16884087107152
H            2.70269880588771       -1.59710317204799       -1.50749342087504
H            4.64049105706591        1.54100715679801       -1.56685007949491
H            6.94684125933298        1.74233065185530       -0.79724963940477
H            8.67104642382170        1.80173500425336        0.80562817967287
H            9.22583378031861        1.12975649632974       -0.75477758473772
H           10.05998837834583        0.68880312045891        0.75585361858479
H            7.08767912351213       -4.24428311697964        1.66712778850347
H            5.47021031631321       -3.51468402267573        1.80903589957377
H            6.05167047410409       -4.10796017281671        0.22589075569656
H            4.43049162691417       -2.41554287095181       -0.00007756038852
H           -0.20097180284309       -1.64413737819375       -1.65207254544606
H           -1.01286721525289       -1.23339529798396       -0.12509637227583
H            0.55312789260360       -2.06174674503474       -0.10394063126942
H           -4.73026663091078        2.89873591228850       -0.06429012749448
H           -3.95317374977051        2.51244836163898        2.85169805977403
H           -5.06657339830313        1.46894247992647        1.93646295494306
H           -5.46135621410227        3.16421660235325        2.23655609682605
H           -2.53640800786881        4.71108172653929        1.01931399571730
H           -3.29499392504853        4.75641512118460       -0.54982077005707
H           -4.19671247957990        5.22084142413909        0.87859510744472
H           -0.64412069625477        2.91952826171117        2.70880171774515
