72
 energy: 7.884869177204 xtb: 6.6.1 (8d0f1dd)
N           -1.53923697054663        2.91822133724638        2.20386354122812
C           -1.54652234957441        2.23738616601804        1.14959111424112
C           -2.73370829778708        2.10059742000266        0.23389469383341
C           -3.27762151502926        0.68773556140547        0.29601045330602
C           -4.28494129327875        0.30269479063907       -0.59070142113481
C           -4.85332381397862       -0.95411118809705       -0.52468354431980
O           -5.84863768282610       -1.41038166959024       -1.33901183056023
C           -6.41400332449445       -0.52964415248872       -2.27496840804906
C           -4.40814939164114       -1.87045319421143        0.45412255030639
O           -5.02881483235319       -3.08273023641970        0.44481400092244
C           -4.68233701498650       -4.01242073775510        1.43771705548161
C           -3.42096548138647       -1.48053885409651        1.33738188540302
C           -2.86596670398621       -0.20823237988335        1.26038415255075
C           -2.15409838835277        2.33932437195127       -1.20604556747189
C           -1.23273634059486        1.19473942719741       -1.69781027918804
C            0.05699949973090        1.13427046047350       -0.95818027723056
N            0.65303076479918       -0.05436654917689       -0.55451838375001
C            2.02335075369106       -0.05556653856792       -0.15943833815468
C            2.96127255400954       -0.56615893456769       -1.27695494127249
C            4.38771342340439       -0.45681388173324       -0.84253959577050
C            5.10393762974627        0.70775833433394       -1.04909093725518
C            6.41561572038111        0.82220358124202       -0.61075864063064
C            7.02981617453386       -0.22593273823958        0.05134951455548
O            8.30837565638009       -0.22314391034561        0.52366741154695
C            9.09886237866358        0.91725760647426        0.31043219405150
C            6.30436728969968       -1.41635481056136        0.27918600409624
O            6.98892408625215       -2.39510773894999        0.93627544431615
C            6.35583306138741       -3.62628415129835        1.16561954756860
C            4.99893068036097       -1.51251812761027       -0.16418546105713
C           -0.03803099367534       -1.31075095066655       -0.61959398317404
C           -3.94497905555715        2.98986415315260        0.68327028268775
C           -4.67382036086115        2.40771203518520        2.01586139042031
C           -3.49402253622896        4.49015308588263        0.48793402627772
H           -4.63127978808500        1.00465834160028       -1.33215583772926
H           -6.84415717412849        0.35373397493734       -1.79214823340917
H           -7.20924796669671       -1.09480327561517       -2.75917861693101
H           -5.68632291942266       -0.21348254661397       -3.03061975924526
H           -4.88198133026502       -3.62327680132415        2.44171468614946
H           -5.31545923062137       -4.87885029441004        1.25584283490961
H           -3.63029430941121       -4.31129280039685        1.36945564801301
H           -3.07090912500567       -2.15146143244481        2.10484750923959
H           -2.11740500908464        0.07735065368473        1.98190412155163
H           -2.96888687382695        2.43531797230952       -1.92591124951502
H           -1.57573116940520        3.26307003557556       -1.23164356793128
H           -1.77161430677222        0.24828365399942       -1.63600054877948
H           -1.02181750526229        1.38075079088671       -2.76402710283181
H           -0.67234159116168        1.70015775233388        0.72223481640528
H            0.69974100177088        1.99123431186216       -0.99606767318301
H            2.14276574085918       -0.68481075351149        0.73024767021915
H            2.32376058070734        0.95830638382857        0.10719350659875
H            2.79106910204472        0.03598752169135       -2.16895856924863
H            2.70856369701187       -1.60297077793282       -1.50636314275204
H            4.64545863333860        1.53538009812769       -1.56856301257970
H            6.95260177951898        1.73829191727843       -0.79949736053254
H            8.67617954062107        1.79964389116736        0.80281404633791
H            9.23228390253580        1.12715503589840       -0.75677259497788
H           10.06624953429322        0.68831136631981        0.75449199416498
H            7.09595757893678       -4.24601416993020        1.67066487095403
H            5.47850662607690       -3.51626740523117        1.81175324551957
H            6.05976987825329       -4.11170973922865        0.22942012013289
H            4.43811023198111       -2.41985466879357        0.00114775293139
H           -0.19480895527605       -1.65002234268198       -1.65137668656615
H           -1.01136458662148       -1.23126209548324       -0.12923810895742
H            0.55167300922247       -2.06436051689110       -0.09859464790594
H           -4.74981691740678        2.88119545055811       -0.04046481231541
H           -3.99856984159945        2.41448697763578        2.87367753079131
H           -5.11408127021890        1.39710889076733        1.92367099265304
H           -5.49474252303335        3.09084549723699        2.26113850541550
H           -2.52592285283443        4.71414534950650        0.95314976756810
H           -3.35733298581906        4.74537224080780       -0.57396563731798
H           -4.18023280273998        5.22464880920936        0.89734633519236
H           -0.65541945971921        2.95823500504317        2.70175112275050
