72
 energy: -5.323717546531 xtb: 6.6.1 (8d0f1dd)
N           -1.50082053934082        2.80127413193935        2.23070096819284
C           -1.55000476484942        2.16834980649926        1.14807180406412
C           -2.74473095741797        2.06881226256963        0.24264581685803
C           -3.30889700548487        0.65685453057443        0.32054832608318
C           -4.30016317152625        0.25767365531875       -0.57848850621306
C           -4.84977189262479       -1.00854377988021       -0.52915717441019
O           -5.82513798499556       -1.47339611098423       -1.35924476014271
C           -6.39919623760350       -0.59312483087713       -2.29095093393373
C           -4.40021127044474       -1.92805653333513        0.44511393125433
O           -4.99922960838886       -3.15060313806371        0.41694819987116
C           -4.66746678758118       -4.08269713358283        1.41356598960326
C           -3.42208831486433       -1.53091094111045        1.33574557258929
C           -2.88356155431869       -0.25018508850105        1.27328477495410
C           -2.18777904116065        2.30848404767027       -1.18977969766963
C           -1.25827184849841        1.18158976612624       -1.67189365182013
C            0.01186674198163        1.13144925868076       -0.90279637915724
N            0.63652706462335       -0.04679790535511       -0.56058124789427
C            2.00518093565040       -0.03557858032097       -0.15849464942436
C            2.93945299365084       -0.54486248265494       -1.27796470353622
C            4.36432557247680       -0.43750406441899       -0.83819476212650
C            5.08111199819976        0.72669502448216       -1.04301241280485
C            6.39221421281695        0.83833864099173       -0.60433621320600
C            7.00337403420372       -0.21237508345012        0.05593459540164
O            8.28190648138072       -0.21376268760448        0.52639895373474
C            9.07470916047088        0.92603961422539        0.31744378129505
C            6.27656675335844       -1.40376722394669        0.27976972779253
O            6.95973201150878       -2.38577266016185        0.93160392154212
C            6.32371871897486       -3.61713662421406        1.15488960036337
C            4.97151721486953       -1.49699300453376       -0.16301810237082
C           -0.04937909340352       -1.30385197388023       -0.61989664475762
C           -3.88583394386987        3.06274481669362        0.60708204835512
C           -4.53085842834687        2.70363670854475        1.95852199576935
C           -3.41403804595346        4.52299327638124        0.53542269186556
H           -4.65333764712376        0.95703015651743       -1.31873610566690
H           -6.84820937268304        0.27786749963130       -1.80208307801677
H           -7.18022235178514       -1.16719820178671       -2.78729495353171
H           -5.67099423284991       -0.25749907804074       -3.03753830271484
H           -4.88307232719097       -3.69713608645852        2.41563149321460
H           -5.29647033406603       -4.94990117767957        1.21923180824764
H           -3.61467726600119       -4.38087231635766        1.35820085524015
H           -3.06998973400755       -2.20564831442618        2.09991785311865
H           -2.14051571082512        0.03331311502445        2.00269691418733
H           -3.01413714799987        2.39482190551076       -1.89608517133950
H           -1.63540568038054        3.24934342353291       -1.20936862541183
H           -1.79748536149156        0.23562146384137       -1.62463618745252
H           -1.01194075418353        1.37798534767034       -2.72370306678008
H           -0.68263079697869        1.66166945472591        0.65528414951949
H            0.65531582683376        1.99155891315318       -0.95127011289303
H            2.12410588226362       -0.66688814317794        0.72901053759200
H            2.30391921477181        0.98099816708850        0.10808590690861
H            2.77077262459930        0.06157949862658       -2.16909730722500
H            2.68536626304008       -1.58002054369743       -1.51087036882312
H            4.62607613124539        1.55673610545848       -1.56265743410620
H            6.92999179686557        1.75376472756445       -0.79226090855952
H            8.65576636814733        1.80808830166936        0.81376331620386
H            9.20717946348085        1.13820591062374       -0.74910606727718
H           10.04151873231251        0.69088945580320        0.75960949434126
H            7.06320039269122       -4.23907777051265        1.65726434546011
H            5.44588208138780       -3.50935088283687        1.80126631820905
H            6.02770164940927       -4.09733078741840        0.21587807044160
H            4.40816281531889       -2.40383992976974       -0.00400316550416
H           -0.21694925409293       -1.62769440911378       -1.65318185091477
H           -1.01658390952741       -1.23954159595529       -0.11338298105850
H            0.55705007441753       -2.05428406203275       -0.11733829939757
H           -4.66492191527222        2.94588138128647       -0.15223325562996
H           -3.80738538935900        2.80644282170890        2.76181469820358
H           -4.92284781849033        1.68559081874321        1.97313268693107
H           -5.35747518056908        3.38510356141634        2.15261625431694
H           -2.58093121659433        4.69552276207000        1.21107112471933
H           -3.10128459180729        4.80549535180950       -0.47072753222204
H           -4.22035632475246        5.19488473899582        0.82230413327901
H           -0.60892564379163        2.80627010754935        2.72144142236121
