72
 energy: 96.901496138630 xtb: 6.6.1 (8d0f1dd)
N           -1.60975442209080        3.14757390890749        2.11491780900287
C           -1.53097207604390        2.37878708706795        1.13048518610473
C           -2.66658169726434        2.17824890874768        0.16614491796329
C           -3.22201283961542        0.76976787551576        0.25296169303935
C           -4.24831011303599        0.39548421709282       -0.61826340597190
C           -4.85832378780873       -0.84053196922504       -0.51330069897469
O           -5.88479615372334       -1.28074540501047       -1.29907406640948
C           -6.44014207567756       -0.39939162849188       -2.24107819313855
C           -4.42322467062153       -1.75016784896488        0.47672949322953
O           -5.07798310884657       -2.94410404848923        0.50000007117797
C           -4.71302590693945       -3.87399038719064        1.48468895934952
C           -3.41209913458938       -1.37419412210461        1.34048618133367
C           -2.81952900118720       -0.12012410289928        1.22815166633910
C           -2.04222627240685        2.38024536960383       -1.26480455296552
C           -1.15527483569384        1.19732588361034       -1.74323499091577
C            0.16158954205399        1.08393591854116       -1.07974697152883
N            0.68644792960592       -0.05774347082785       -0.55326859838560
C            2.06479496261688       -0.08665958944692       -0.16147040135848
C            3.00304702311431       -0.60580184080255       -1.27463651239825
C            4.43414727725988       -0.49334787616478       -0.84122759486812
C            5.14821279904471        0.67062072278649       -1.05661465954358
C            6.46232685700847        0.79091126022775       -0.62293759605827
C            7.08245364159375       -0.25133311481448        0.04346673148692
O            8.36049810041846       -0.24244458140517        0.51304422820610
C            9.14775520329289        0.90079108782479        0.29732605695075
C            6.35908420683154       -1.44280137674479        0.27929198622885
O            7.04787274705190       -2.41406934064805        0.94104796625827
C            6.42013991088217       -3.64556226973084        1.18448293838568
C            5.05146886955453       -1.54436420856189       -0.16116466620573
C           -0.01514442366974       -1.31389716304100       -0.61875451069005
C           -3.78925440280016        3.12568429821370        0.48774591191595
C           -5.13120022036011        1.65580170128091        2.33995994055092
C           -3.51534354908607        4.57404686583103        0.23490641556916
H           -4.58735190125409        1.10151807908907       -1.35894322433200
H           -6.83296986520572        0.50672326542266       -1.76987459227393
H           -7.26251645564141       -0.94618401942180       -2.70059643180039
H           -5.71655201339029       -0.12197889792109       -3.01606416513571
H           -4.88330057913202       -3.48079497199259        2.49220850846134
H           -5.35569435822422       -4.73687175567704        1.32247066786935
H           -3.66426740432857       -4.17790814462526        1.39011413489109
H           -3.07453498728651       -2.03969278763274        2.11972867113014
H           -2.06700139417108        0.16519954882980        1.94411227863129
H           -2.85397542016307        2.50504243633588       -1.98732386730257
H           -1.44057719338524        3.28856086577659       -1.27783974040794
H           -1.71714335062785        0.26552799154096       -1.66283673179364
H           -0.95947778517627        1.37613350818546       -2.81148269321326
H           -0.64176962415044        1.78871568112964        0.85204608501819
H            0.78742088517368        1.95898473039857       -1.07485729994149
H            2.17984735814943       -0.71698466609997        0.72761881703192
H            2.37687555995721        0.92318354851007        0.10823061995002
H            2.83801287704521       -0.01305017887828       -2.17368536826301
H            2.75506973753156       -1.64590621813646       -1.49709113505783
H            4.68581702623769        1.49362073284464       -1.57951819374406
H            6.99641035926536        1.70736845238027       -0.81777723928093
H            8.71848818164278        1.78232498790271        0.78501888892585
H            9.28405030272050        1.10743244727943       -0.76991369031337
H           10.11517842247986        0.68042372851718        0.74541704902622
H            7.16321133289482       -4.25824187892797        1.69427833032908
H            5.54435751715941       -3.53116950491202        1.83156099458564
H            6.12414921204992       -4.14123051056845        0.25381395531359
H            4.49614566892320       -2.45393649857702        0.01170085245537
H           -0.14020603915065       -1.67927777722394       -1.64512675884982
H           -1.00358446727220       -1.20958062893041       -0.16485422091116
H            0.54127608518487       -2.06303474150575       -0.05725405123727
H           -4.78090800108588        2.81972297758754        0.24359797722128
H           -4.39346164088118        1.61556853190523        3.11056163883411
H           -5.56769853301749        0.72291471459985        1.98665790463190
H           -5.79968964528441        2.49174671612991        2.49188736589090
H           -2.46271927119859        4.77425144808060        0.36697283906069
H           -3.84443630634155        4.78525169022403       -0.77329879009662
H           -4.01147027692264        5.26023848394426        0.90726334082910
H           -0.75919353842756        3.25594082373485        2.66021781531096
