72
 energy: 61.920453844995 xtb: 6.6.1 (8d0f1dd)
N           -1.58833535460235        3.06298922895195        2.15758714827377
C           -1.54169883651611        2.32531637858061        1.14303790848971
C           -2.70142305018973        2.14572616012128        0.19850645195527
C           -3.23923473139070        0.73264869646275        0.26667930805337
C           -4.26263620115960        0.35953346036917       -0.60694535565666
C           -4.85741018892873       -0.88381472935313       -0.51714702549646
O           -5.87422028125936       -1.32846851984021       -1.31298704068233
C           -6.43030820054370       -0.44671089614180       -2.25357863229666
C           -4.41840947578037       -1.79668136036855        0.46803430641642
O           -5.06180556560768       -2.99683834996003        0.47977735942407
C           -4.70118943966640       -3.92641346591516        1.46704158105936
C           -3.41772906510730       -1.41574498947946        1.34050174582038
C           -2.83817416641220       -0.15529546441068        1.24172316734303
C           -2.09433649833480        2.37119924759076       -1.23980498714001
C           -1.18950930252809        1.20235124059564       -1.73207813163089
C            0.11887391881972        1.10797869860699       -1.03246334315777
N            0.68017331953922       -0.06633329639757       -0.56083922847993
C            2.04910822226689       -0.07790965059798       -0.16196348327697
C            2.99039600732635       -0.59189279407288       -1.27633164635210
C            4.41758135379967       -0.48048693582502       -0.84388570567360
C            5.13248403741895        0.68471991854942       -1.05392380190048
C            6.44506031086245        0.80292844803113       -0.61768584691023
C            7.06275934363639       -0.24214380569506        0.04683507317836
O            8.34213414991062       -0.23530240906497        0.51867698297151
C            9.12945957207514        0.90659088753067        0.30233504027329
C            6.33872495448466       -1.43252034510367        0.27979648024368
O            7.02607928338536       -2.40736547275328        0.94104213134680
C            6.39624046778295       -3.63830889151787        1.17822427878328
C            5.03254023766411       -1.53249268201123       -0.16248334765490
C           -0.02251539027888       -1.31869614099582       -0.62054216281304
C           -3.89784472504414        3.02227243647010        0.62672646478772
C           -4.89490263366616        1.99407829557805        2.15580645014458
C           -3.53453838252897        4.51505208628159        0.35989309362272
H           -4.60338365787534        1.06510800175562       -1.34752300700045
H           -6.83741697537448        0.45128859197690       -1.77820008082059
H           -7.24250745843459       -0.99968982851151       -2.72364872091316
H           -5.70382897146857       -0.15471891833338       -3.02015853163593
H           -4.88223418529635       -3.53464538742069        2.47349141659882
H           -5.33954332802952       -4.79132530079969        1.29861426509656
H           -3.65085402324023       -4.22727171575860        1.38253011960436
H           -3.07414261448552       -2.08375915914003        2.11383951050364
H           -2.08665000418419        0.13052278867149        1.95871094369861
H           -2.90335150210095        2.48455282490325       -1.96582472023649
H           -1.49442947505905        3.28052357360164       -1.26321121014699
H           -1.73790699710225        0.26156831611699       -1.65124892101411
H           -1.00370680489928        1.37909801818784       -2.80858576506395
H           -0.65724450576808        1.75487202026349        0.80422194822802
H            0.75436092409597        1.97347758331546       -1.04715238533031
H            2.16657364961799       -0.70467755497175        0.73015626597364
H            2.35419238716479        0.93429999291591        0.10631996171980
H            2.82022837587653        0.00484600462776       -2.17163660028655
H            2.73825326794253       -1.63029656771610       -1.50119323707191
H            4.67052291995019        1.50900137685815       -1.57530080863978
H            6.98083484957884        1.71922109461284       -0.80959333707233
H            8.70234407700626        1.78878089730603        0.79114601312113
H            9.26443458704317        1.11458829679253       -0.76512105163066
H           10.09739585111235        0.68464958725775        0.74868224361627
H            7.13763241657467       -4.25459125237660        1.68635047623546
H            5.51962329949326       -3.52557581867596        1.82459933442584
H            6.10005605976985       -4.12996605534151        0.24534070418289
H            4.47462854555543       -2.44089346240714        0.00768588931043
H           -0.16500664959695       -1.67527805169592       -1.64878730056318
H           -1.00490658692858       -1.21838049650273       -0.15194754582699
H            0.54098261000664       -2.07482000871023       -0.07332178078532
H           -4.81987826478929        2.81176292588756        0.11129163317441
H           -4.23901887281776        1.91651636462167        3.01525287992715
H           -5.35296988441222        1.01148989658555        1.89862755842224
H           -5.67055087348998        2.72081538820690        2.39910350903669
H           -2.49216509808819        4.73548702131529        0.59413700734056
H           -3.67237890018981        4.71792450996699       -0.70155570867332
H           -4.07791504890017        5.25902137225389        0.92494229741627
H           -0.71650093720917        3.14596222471496        2.67061741974664
