72
 energy: 90.062774946855 xtb: 6.6.1 (8d0f1dd)
N           -1.60307530194125        3.11900724512423        2.12995889471265
C           -1.53494693312215        2.36215967847054        1.13479671177083
C           -2.67779712981223        2.16787648227172        0.17634666608762
C           -3.22786487978484        0.75817700925949        0.25779834367506
C           -4.25314556936311        0.38417909321234       -0.61421755718443
C           -4.85811862997563       -0.85425154499909       -0.51408642937254
O           -5.88125734198554       -1.29610854767525       -1.30361266255352
C           -6.43674317633875       -0.41456649430557       -2.24513080917680
C           -4.42159846549007       -1.76495498247386        0.47414474599563
O           -5.07233617179762       -2.96121822604337        0.49340145003771
C           -4.70851378518667       -3.89062895268525        1.47902559666979
C           -3.41389432069806       -1.38740251457822        1.34077028185455
C           -2.82565714958193       -0.13118849306731        1.23284573539375
C           -2.05910259335032        2.37758774300657       -1.25706469676169
C           -1.16694695177467        1.19939411070530       -1.73965927021776
C            0.14755063463404        1.09131466611645       -1.06526842904262
N            0.68527019511673       -0.06024572214932       -0.56291242141386
C            2.05943795569191       -0.08361245956174       -0.16248745902330
C            2.99889915579413       -0.60124335345369       -1.27514489479054
C            4.42899612303035       -0.48919294945302       -0.84207548536442
C            5.14309481330354        0.67512555566601       -1.05584512686941
C            6.45680127096652        0.79485968796873       -0.62120013718959
C            7.07617464979621       -0.24823939615389        0.04467852705911
O            8.35434048167789       -0.23990758284001        0.51509439189169
C            9.14180279949905        0.90282918866859        0.29891755221651
C            6.35263870837360       -1.43945857190033        0.27954614656218
O            7.04070200866218       -2.41173674115086        0.94130797625106
C            6.41233926248816       -3.64311989864755        1.18264093851738
C            5.04542098471863       -1.54050815903148       -0.16172087127155
C           -0.01715835861212       -1.31618601977988       -0.62029333545513
C           -3.82029920041584        3.09544875733130        0.52684880303122
C           -5.06164002076868        1.75836279580668        2.28521929608444
C           -3.51923461801333        4.55314190753395        0.27283526423580
H           -4.59316496361076        1.09019745300579       -1.35448738509609
H           -6.83443725943555        0.48886783453899       -1.77272824753747
H           -7.25562298070057       -0.96344293013878       -2.70842020881454
H           -5.71201832302890       -0.13231683118582       -3.01725663235780
H           -4.88231605125774       -3.49782171332398        2.48618294177826
H           -5.34948712102382       -4.75443254261527        1.31501424110272
H           -3.65907859646823       -4.19322053462534        1.38776650346118
H           -3.07417864050858       -2.05379827010145        2.11797290969121
H           -2.07373857736676        0.15424049677618        1.94940153396817
H           -2.87080499118750        2.49862004689643       -1.97984577264382
H           -1.45859615533957        3.28631265888776       -1.27326910493305
H           -1.72431987499622        0.26431902957649       -1.65894977852044
H           -0.97384811436680        1.37778251946208       -2.81008379357372
H           -0.64668444807641        1.77808559202327        0.83613744291680
H            0.77569982625339        1.96411813121369       -1.06536865307545
H            2.17437076942252       -0.71241116349295        0.72808922409801
H            2.36904403449566        0.92682896617424        0.10733730274451
H            2.83238093557210       -0.00737303582360       -2.17311384219692
H            2.74963309440250       -1.64084601240445       -1.49856967753255
H            4.68068070789603        1.49846605722460       -1.57817382077167
H            6.99135157848668        1.71132651466616       -0.81498312196479
H            8.71325865235874        1.78458186002822        0.78691084475955
H            9.27760155312370        1.10978857991666       -0.76841419249890
H           10.10943737948947        0.68212420443837        0.74635581077085
H            7.15479053679213       -4.25706583236329        1.69192677186635
H            5.53630676759960       -3.52917421701330        1.82945040959897
H            6.11632392252698       -4.13743046605864        0.25123274284922
H            4.48931393309925       -2.44973373671749        0.01029246744497
H           -0.14888652839002       -1.67999931296577       -1.64633131592245
H           -1.00332863620084       -1.21256874628523       -0.16066939983767
H            0.54112792145263       -2.06728964684573       -0.06220679834347
H           -4.79787334338934        2.81105074111167        0.19894101854333
H           -4.34477658731968        1.71112418411687        3.07946598770237
H           -5.50306348798402        0.81244723015151        1.95556532129703
H           -5.76096585081246        2.56542514774726        2.46360865435772
H           -2.46987086278239        4.75957903153179        0.44538124719265
H           -3.78356961485031        4.75621228357472       -0.75596685887633
H           -4.04218107429395        5.25772396774043        0.90044209296182
H           -0.74423072685630        3.22002106203143        2.66282789905827
