72
 energy: 105.131618295389 xtb: 6.6.1 (8d0f1dd)
N           -1.62239302675173        3.23306110461232        2.06333299110716
C           -1.51155327067926        2.42732531635649        1.11268463250952
C           -2.63154472712900        2.21024659807298        0.13550940357623
C           -3.20726175561664        0.80803575855254        0.24262096414103
C           -4.23468206941204        0.43117814322544       -0.62758076792376
C           -4.85895324809927       -0.79799159649022       -0.51036938658622
O           -5.89631945667609       -1.23187430690260       -1.28369238504176
C           -6.45048086991780       -0.35090184276780       -2.22767954881317
C           -4.42844063971927       -1.70496175220264        0.48522111870361
O           -5.09554878645786       -2.89095300245447        0.52208140437029
C           -4.72591279066193       -3.82239028684395        1.50403545350395
C           -3.40698102202403       -1.33388253411180        1.33953020691770
C           -2.80278922924957       -0.08498703575754        1.21604943902154
C           -1.99539192003709        2.38687696463739       -1.28931503489690
C           -1.12430156787234        1.19069813485365       -1.76576142717929
C            0.20086226160638        1.05879137694582       -1.13398650723825
N            0.68803814861967       -0.05520432636928       -0.52206010556038
C            2.07828579134589       -0.09556960979142       -0.15993505323273
C            3.01534784423356       -0.62078240917232       -1.27237082735954
C            4.44841757286409       -0.50626425962197       -0.83655386708890
C            5.16283500579129        0.65639137979776       -1.05802729052514
C            6.47826099061691        0.77816647842109       -0.62866785855045
C            7.10102679883340       -0.26111256332362        0.03905263926319
O            8.37951645696224       -0.25069040323574        0.50455812982157
C            9.16565112492448        0.89449259234861        0.29114185956983
C            6.37846251142062       -1.45305397510377        0.27845525235507
O            7.07027790922317       -2.42146200590492        0.93973270042539
C            6.44415134676334       -3.65285103358254        1.19071057462744
C            5.06935218275745       -1.55617913199124       -0.15763569518496
C           -0.01316610677182       -1.31127338614687       -0.60882040268459
C           -3.71366498194220        3.20623508270976        0.37867323114280
C           -5.32631676589444        1.37377688228563        2.49532137653011
C           -3.50085627615155        4.63883995902460        0.10980842893988
H           -4.56961637854021        1.13669191665239       -1.37064789417426
H           -6.82846122845666        0.56351413253923       -1.76036839511086
H           -7.28312708976012       -0.89123510659438       -2.67595575615740
H           -5.72993419605895       -0.08841271401725       -3.01059184870073
H           -4.88502999248440       -3.42775701197325        2.51260216418521
H           -5.37296512587748       -4.68313969810629        1.34751430357813
H           -3.67913125039756       -4.12889170971802        1.39848696883907
H           -3.07789709773557       -1.99644383854774        2.12606954616738
H           -2.04568130521566        0.19723207240002        1.92877255267105
H           -2.80633327619914        2.52074957801540       -2.01104193472557
H           -1.39085407193114        3.29546712619831       -1.29910824148416
H           -1.70430726758416        0.27368424524263       -1.67353553575349
H           -0.93626868177222        1.36491923733156       -2.83378506452028
H           -0.61917801044903        1.82761736435527        0.89020015446563
H            0.82171784242484        1.93812674544677       -1.10262154212982
H            2.18604494480214       -0.73206192651387        0.72334744165836
H            2.39903729455374        0.91276398597036        0.10975558451998
H            2.85485121373972       -0.03236691237248       -2.17544834004987
H            2.77096142587692       -1.66251467117303       -1.49020610718319
H            4.70136888485947        1.47842277820426       -1.58341086224861
H            7.01084761487034        1.69455600020956       -0.82726024815869
H            8.73436931280623        1.77543197901003        0.77823058230770
H            9.30338601601797        1.10038758371533       -0.77574555985736
H           10.13220575818628        0.67398571308753        0.74131995646997
H            7.18947347403227       -4.26104390052379        1.70211004205705
H            5.56930683573927       -3.53695881437530        1.83901858339558
H            6.14786211922562       -4.15320295426647        0.26271113876529
H            4.51682290872247       -2.46708864308432        0.01738033762232
H           -0.11729758947149       -1.67527999634731       -1.63821309950166
H           -1.00868897053490       -1.20223178640255       -0.17473685941144
H            0.53873251843193       -2.05493312517696       -0.04003535116228
H           -4.71961980877515        2.86858533562184        0.35306161256041
H           -4.54215985431841        1.32159659140799        3.21018630398378
H           -5.76047704917622        0.47917168387422        2.08168943674329
H           -5.90970060291646        2.27638990958596        2.58391941176951
H           -2.44546773226093        4.83423420577614        0.15881202868712
H           -3.94919252672556        4.89534312178139       -0.85094835438975
H           -3.97853608503222        5.28115090601221        0.83989053490752
H           -0.79899827180838        3.36791336150525        2.64426573652950
