72
 energy: 79.152152891191 xtb: 6.6.1 (8d0f1dd)
N           -1.59637706601913        3.09089210706985        2.14427993504308
C           -1.53913146734562        2.34463049140051        1.13912918839617
C           -2.68976570631162        2.15716241757253        0.18698800427996
C           -3.23404697232612        0.74589799416234        0.26210845943357
C           -4.25818709330704        0.37210071987272       -0.61085128970103
C           -4.85804083028561       -0.86882588715799       -0.51578877524196
O           -5.87805174759131       -1.31220664788243       -1.30859660029518
C           -6.43390459392092       -0.43059460557463       -2.24962405456950
C           -4.42018775201064       -1.78052619434045        0.47090630283061
O           -5.06723666022758       -2.97877694991098        0.48655519680687
C           -4.70461598269960       -3.90792436661308        1.47310077809054
C           -3.41588078601016       -1.40127057960523        1.34032303213024
C           -2.83205722552272       -0.14286787475150        1.23690013729560
C           -2.07655879059396        2.37441544516680       -1.24864622431377
C           -1.17801783968252        1.20092891897634       -1.73597285979682
C            0.13388579266521        1.09884528846519       -1.04992984033408
N            0.68308159973717       -0.06337313942672       -0.56310016629670
C            2.05443247138586       -0.08085171395730       -0.16231190141154
C            2.99462214263627       -0.59660647162914       -1.27564819412953
C            4.42346470048638       -0.48492537520235       -0.84302814986328
C            5.13784572414930        0.67979807813730       -1.05497322385337
C            6.45105862519275        0.79884764617188       -0.61945852607163
C            7.06961005739837       -0.24519019239846        0.04577808406525
O            8.34816365697790       -0.23751136050550        0.51704394645994
C            9.13566838102470        0.90476629332935        0.30066686001018
C            6.34588208537394       -1.43603126764577        0.27964979253025
O            7.03343934967543       -2.40950390059114        0.94125171352469
C            6.40436868516244       -3.64069398433418        1.18053636744880
C            5.03911976228609       -1.53655157370533       -0.16221828122483
C           -0.01968016326083       -1.31794148714237       -0.62052071889966
C           -3.85680757184032        3.06132933910718        0.57206012007503
C           -4.98110902052265        1.87128692647052        2.22516961187231
C           -3.52625870637667        4.53383283852530        0.31431821029980
H           -4.59868357078016        1.07783254983018       -1.35125831736798
H           -6.83628826012915        0.47014336135959       -1.77580831695403
H           -7.24946207866367       -0.98158195304256       -2.71627554261356
H           -5.70834075054802       -0.14350877718015       -3.01907154831134
H           -4.88192220295719       -3.51544164625468        2.47986596113207
H           -5.34407561333734       -4.77249555698783        1.30722082150079
H           -3.65462803350094       -4.20937029366494        1.38511379790339
H           -3.07416067311382       -2.06838478131830        2.11563836162897
H           -2.08030086633148        0.14262601478277        1.95363713831050
H           -2.88731052602125        2.49159413926239       -1.97267154635654
H           -1.47684471769538        3.28361472144396       -1.26815180305764
H           -1.73122523606555        0.26308024180117       -1.65513539078405
H           -0.98835312962110        1.37900578964558       -2.80936508379563
H           -0.65228353530864        1.76716900425959        0.82051915314341
H            0.76469498412343        1.96882688402915       -1.05565074456593
H            2.17050233500999       -0.70858070694767        0.72903883605979
H            2.36163378551159        0.93042144170944        0.10692386865633
H            2.82628713794962       -0.00136826195325       -2.17225676562588
H            2.74398705316291       -1.63567072071833       -1.49989807019383
H            4.67559506426943        1.50358762933606       -1.57673358408272
H            6.98614257331736        1.71528994310979       -0.81222055483854
H            8.70784774944815        1.78675726338679        0.78901875372171
H            9.27103634258079        1.11217187387817       -0.76674165793147
H           10.10346046333696        0.68352328803702        0.74753403910146
H            7.14628433224544       -4.25581260088824        1.68926813208339
H            5.52806687602683       -3.52733659741834        1.82712169341561
H            6.10830081303635       -4.13370964806759        0.24840951682309
H            4.48217517746347       -2.44539127360198        0.00895818398405
H           -0.15694917819732       -1.67851530586221       -1.64742544403153
H           -1.00384310805438       -1.21569038333779       -0.15623434643273
H            0.54077738944972       -2.07162459165003       -0.06736933847814
H           -4.81341896467480        2.80732196919700        0.15586179317310
H           -4.29281154240853        1.81196551784882        3.05049482865532
H           -5.43029666087444        0.90893496168776        1.92787532845804
H           -5.71675300888564        2.64242349565921        2.43229026705430
H           -2.48015136731675        4.74731559011933        0.51993496239053
H           -3.72666791034922        4.73660433586037       -0.73165977489102
H           -4.06361436482337        5.25741720639334        0.90691197497554
H           -0.73054905255411        3.18322692150683        2.66647326650502
