72
 energy: -1.183006480996 xtb: 6.6.1 (8d0f1dd)
N           -1.51995218034870        2.85955136654397        2.22020346117840
C           -1.54852362855168        2.20267895942097        1.15108755266339
C           -2.74030770803443        2.08528919408989        0.24028498260853
C           -3.29467987817934        0.67307434206153        0.30975419696325
C           -4.29346350925994        0.28053011337340       -0.58345538451676
C           -4.85177297757550       -0.98138491078596       -0.52644008392185
O           -5.83699441011897       -1.44194799683106       -1.34899980993887
C           -6.40621211673715       -0.56098285841482       -2.28266446196729
C           -4.40429767127109       -1.89939968134665        0.44990330880025
O           -5.01417571349171       -3.11691114352581        0.43085252947924
C           -4.67504037132229       -4.04814945821905        1.42531247259180
C           -3.42167437987631       -1.50568079715644        1.33684531181226
C           -2.87578390518476       -0.22877271590150        1.26770668662247
C           -2.17218248913464        2.32358631232280       -1.19688569444788
C           -1.24658148701833        1.18867076166275       -1.68432084368030
C            0.03256331076476        1.13609545753308       -0.92699900236533
N            0.64403319503561       -0.04963933530315       -0.55799650431772
C            2.01369943887180       -0.04540091160776       -0.15913987422276
C            2.95015436848504       -0.55534633572222       -1.27746941776938
C            4.37596156725496       -0.44695309581474       -0.84078312850813
C            5.09257814751854        0.71737772262065       -1.04624280364657
C            6.40387967648700        0.83035139290883       -0.60734483161376
C            7.01655382522658       -0.21906456213033        0.05385450357387
O            8.29501221267156       -0.21833843969322        0.52547983574848
C            9.08677121933628        0.92164916065377        0.31409554231057
C            6.29039943877257       -1.40987894460149        0.27957097434195
O            6.97415563469692       -2.39028410816938        0.93417021384371
C            6.33973673193249       -3.62165841600975        1.16025569855948
C            4.98521373302338       -1.50450054977314       -0.16384585144506
C           -0.04414319231920       -1.30694875604372       -0.61993232181412
C           -3.92046250238230        3.02673053800003        0.65337290862793
C           -4.60230364177485        2.55670188962338        1.98844098222101
C           -3.45810651535954        4.50633026546123        0.51521009991425
H           -4.64254570876091        0.98070469456432       -1.32513927917430
H           -6.84550834917219        0.31622657515684       -1.79651738617382
H           -7.19446039623571       -1.13025478793020       -2.77327594466465
H           -5.67789993314695       -0.23499127207519       -3.03345426200490
H           -4.88268028651755       -3.66116776506095        2.42850120675489
H           -5.30621854986978       -4.91481990561605        1.23680414956437
H           -3.62263171619766       -4.34679138714690        1.36349931644939
H           -3.06979214433021       -2.17851351999184        2.10218805346076
H           -2.12903158874086        0.05557077987123        1.99228690025222
H           -2.99212681495252        2.41526223707963       -1.91078126598357
H           -1.60549185090565        3.25494090342804       -1.21992754521840
H           -1.78508842109125        0.24232552385435       -1.63029702561678
H           -1.01739422932428        1.37955400942339       -2.74353478392986
H           -0.67843923641376        1.68117969816173        0.68835010606874
H            0.67677747389052        1.99317741841558       -0.97532455929701
H            2.13331486374595       -0.67574022939947        0.72949791966141
H            2.31261162118346        0.96977688514458        0.10709927962383
H            2.78051687379469        0.04891084242265       -2.16880271632855
H            2.69697515628240       -1.59139329052115       -1.50856968623723
H            4.63578034080043        1.54632277014420       -1.56545976727631
H            6.94127214879831        1.74616619277541       -0.79545654501179
H            8.66594580604229        1.80389678795565        0.80834467593899
H            9.21958465548592        1.13255162870947       -0.75285958905064
H           10.05389205412001        0.68956907503647        0.75715904454722
H            7.07957561882046       -4.24255695079227        1.66386368239063
H            5.46214680681401       -3.51293142494901        1.80647217921749
H            6.04374831954883       -4.10434385238508        0.22258722642441
H            4.42312011538391       -2.41151282611309       -0.00132741377121
H           -0.20663715742991       -1.63849500163711       -1.65258721227290
H           -1.01405561092114       -1.23559940448016       -0.12092673697443
H            0.55485202418249       -2.05920789988268       -0.10898011790668
H           -4.70900848788875        2.91586710860211       -0.09258956258265
H           -3.90369584561526        2.61099619193546        2.82171251406182
H           -5.01905449456203        1.54174411607841        1.94973140552669
H           -5.42655207440556        3.23889534388706        2.20814360029821
H           -2.54861774294852        4.70643859834464        1.08445899043639
H           -3.23096050442184        4.77324918046036       -0.52476870553373
H           -4.20919531784025        5.21281997562046        0.86282270809715
H           -0.63246157545860        2.88142447731219        2.71515677452373
