72
 energy: 22.709711977421 xtb: 6.6.1 (8d0f1dd)
N           -1.55879627848506        2.97534233937170        2.18711173401178
C           -1.54464310172827        2.27120094384928        1.14808133908218
C           -2.72320817595894        2.11727842929226        0.22285247227221
C           -3.26084532964705        0.70320904720396        0.28378122962015
C           -4.27580903815965        0.32408791199787       -0.59680853775052
C           -4.85511193403235       -0.92720434146276       -0.52160795072724
O           -5.85980629154299       -1.37804046489772       -1.32853195840455
C           -6.42009449075059       -0.49601955162948       -2.26622431568472
C           -4.41264066231644       -1.84261931167449        0.45934759551711
O           -5.04334735886841       -3.04987157335874        0.45852322743359
C           -4.69053924202887       -3.97986700280763        1.44861774664620
C           -3.42009791367797       -1.45665487975045        1.33840901170964
C           -2.85502222684698       -0.18908726858364        1.25305368872874
C           -2.13290451728114        2.35360993266441       -1.21781166521905
C           -1.21798382928940        1.19826390481885       -1.71268183042938
C            0.08206093699505        1.12372187341456       -0.99146108060784
N            0.66372523154238       -0.06205284947901       -0.55356839017408
C            2.03359172824677       -0.06529621458703       -0.16039312612353
C            2.97306887505958       -0.57627273952117       -1.27690991659477
C            4.39962129231234       -0.46594731489867       -0.84330722939833
C            5.11535280269945        0.69896079936173       -1.05073698271542
C            6.42734748919538        0.81475533478330       -0.61302742179324
C            7.04289426206601       -0.23234297105759        0.04979754815110
O            8.32175278178073       -0.22796140860961        0.52229639605004
C            9.11100789650389        0.91294024939063        0.30774870083667
C            6.31797416965329       -1.42254509787580        0.27957419372781
O            7.00355870393947       -2.39991350667649        0.93838833356851
C            6.37188631445275       -3.63106762630152        1.17049578055595
C            5.01227405647365       -1.52008580470463       -0.16355399158240
C           -0.03236617358897       -1.31529486128757       -0.62020718666024
C           -3.94225441180062        2.98442962955192        0.68407914512946
C           -4.74293506106505        2.26483768819222        2.05320251180159
C           -3.52317895919752        4.49098853156889        0.44101175061478
H           -4.61960267292478        1.02773946487720       -1.33787417179597
H           -6.84061314247399        0.39334232985315       -1.78606661301768
H           -7.22233426088487       -1.05554833975104       -2.74552011236851
H           -5.69214595380599       -0.18947517121884       -3.02564077812488
H           -4.88257297812267       -3.59019437089287        2.45389256328872
H           -5.32562620890014       -4.84576480151008        1.27194120097649
H           -3.63907595187112       -4.27934784674839        1.37370670008927
H           -3.07254020738863       -2.12639516285259        2.10806522515279
H           -2.10501221646432        0.09644172415943        1.97248822120154
H           -2.94370503185394        2.45602637145397       -1.94211866850164
H           -1.54341374676301        3.26999348961346       -1.24429585534852
H           -1.75939987034494        0.25332478882370       -1.64157450807313
H           -1.02487046714610        1.37944647829761       -2.78575753424611
H           -0.66612838419167        1.71971845657571        0.75639014869582
H            0.72092103264233        1.98487668879923       -1.01745529234513
H            2.15249291527803       -0.69287388114141        0.73057066131241
H            2.33463449323624        0.94819842737545        0.10647841559809
H            2.80267767010668        0.02386937322518       -2.16995495926345
H            2.72071576150529       -1.61370593445005       -1.50479662226412
H            4.65547067191770        1.52526876941986       -1.57085872128049
H            6.96400147006019        1.73094376115109       -0.80273990504361
H            8.68653105154345        1.79527372817376        0.79866187362304
H            9.24507097001187        1.12220621777890       -0.75957363934187
H           10.07863424859561        0.68685896844608        0.75273645109995
H            7.11250576290323       -4.24956974203136        1.67667113786992
H            5.49481660803025       -3.52020405622086        1.81669080942196
H            6.07582021772400       -4.11884587486132        0.23552749240575
H            4.45257609006758       -2.42781523078709        0.00374568606192
H           -0.18367578203157       -1.66020924298635       -1.65134513704980
H           -1.00925742930785       -1.22641212010511       -0.13863712013708
H            0.54729442099755       -2.07012441599350       -0.08938021652568
H           -4.78389490409749        2.85100890406939        0.01208258405693
H           -4.08758561863596        2.22461890659256        2.92634276527424
H           -5.20125925024260        1.25791362079944        1.90821104228230
H           -5.56030525119085        2.94916200065671        2.31271147442053
H           -2.51444007075940        4.72097626804340        0.80851699842756
H           -3.48713097591519        4.72606936396161       -0.63190660825302
H           -4.14553173144774        5.23819023051384        0.91660361839367
H           -0.67874137454560        3.03249224976915        2.68882005424135
