  72
        -99.43764342
 N         -2.1596997162        3.3925804404        2.0856591415
 C         -2.0618268767        2.1601814739        1.5995986529
 C         -3.0638827649        1.9223384807        0.5214133711
 C         -3.6658229560        0.5314857680        0.5259688345
 C         -4.5378378638        0.1550539435       -0.4987208377
 C         -5.0874196155       -1.1139744174       -0.5516089231
 O         -5.9298701650       -1.5601124869       -1.5072659246
 C         -6.3080809155       -0.6942546732       -2.5503085193
 C         -4.7617545193       -2.0602314683        0.4567341503
 O         -5.3177577069       -3.2794565615        0.3127581544
 C         -5.0344527234       -4.2754696774        1.2677348859
 C         -3.9242772569       -1.6685083573        1.4874098791
 C         -3.3890770147       -0.3880956044        1.5230584662
 C         -2.4409163817        2.2367768682       -0.8768179910
 C         -1.4864243420        1.1642583541       -1.3925590236
 C         -0.1093129646        1.3002157357       -0.7483470182
 N          0.7419564415        0.1541567023       -0.9536394503
 C          2.1319278078        0.3493227703       -0.5975345578
 C          3.0599658888       -0.2639468807       -1.6646996647
 C          4.4822074409       -0.2102410829       -1.1948664212
 C          5.2294031769        0.9506744680       -1.3238486994
 C          6.5180037823        1.0270135331       -0.8191431698
 C          7.0895583640       -0.0617923725       -0.1757290157
 O          8.3222790434       -0.0951030200        0.3699787301
 C          9.1169279392        1.0665028090        0.3379688133
 C          6.3421584088       -1.2659074858       -0.0612764145
 O          6.9819288421       -2.2825738483        0.5536285345
 C          6.3378837690       -3.5288455556        0.6669309753
 C          5.0513548123       -1.3132609478       -0.5630709303
 C          0.1972966333       -1.1078060989       -0.5082963200
 C         -4.0989495584        3.0459579386        0.8402214188
 C         -5.1885496010        2.5792513088        1.8002955675
 C         -3.2443671858        4.1420906817        1.4980526472
 H         -4.7930080010        0.8699016508       -1.2626876729
 H         -6.8457947487        0.1809119172       -2.1720706366
 H         -6.9728249153       -1.2764269373       -3.1855902926
 H         -5.4422572526       -0.3686450119       -3.1358293244
 H         -5.3894069732       -3.9904544038        2.2628785443
 H         -5.5712253508       -5.1612361793        0.9338926303
 H         -3.9631337952       -4.4954605935        1.3105678233
 H         -3.6780101809       -2.3561185461        2.2798840225
 H         -2.7603840029       -0.1278575454        2.3588810415
 H         -3.2593079359        2.3496614234       -1.5867089543
 H         -1.9201370417        3.1948964960       -0.8257201594
 H         -1.9113592473        0.1854610443       -1.1804794103
 H         -1.3827283294        1.2568055597       -2.4742722129
 H         -1.3705497584        1.4588646845        2.0238518088
 H          0.3990421467        2.1667431540       -1.1792428019
 H          2.3600829600       -0.1021257557        0.3791283394
 H          2.3455131581        1.4177761068       -0.5235850883
 H          2.9380809802        0.2974072272       -2.5919811025
 H          2.7598198912       -1.2960262493       -1.8498962120
 H          4.8072049095        1.8072900194       -1.8264170555
 H          7.0742695346        1.9430231541       -0.9352667130
 H          8.6217535582        1.9060566135        0.8380635410
 H          9.3714282309        1.3508335128       -0.6885740113
 H         10.0290105927        0.8123418695        0.8775401758
 H          7.0558654798       -4.1860505280        1.1551235215
 H          5.4347085684       -3.4595676512        1.2820910397
 H          6.0809820591       -3.9385905877       -0.3153575497
 H          4.4708214167       -2.2178910293       -0.4735506894
 H         -0.5481740887       -1.4692387488       -1.2140319562
 H         -0.2704416283       -1.0314921218        0.4838274366
 H          0.9924120015       -1.8473690773       -0.4579584111
 H         -4.5665151616        3.4147560297       -0.0731332389
 H         -4.7544694856        2.1958420936        2.7203740724
 H         -5.7860936985        1.7904595188        1.3525750115
 H         -5.8477693143        3.4088591330        2.0429248851
 H         -3.7929008308        4.6904540619        2.2673764669
 H         -2.8612982170        4.8648395202        0.7672604599
 H         -0.2718651314        1.5085206993        0.3248721167
 H         -1.5550148804        3.7750720101        2.7936634691
