  72
        -99.25411891
 N         -1.7323688875        2.7431634279        2.4076698560
 C         -1.7796670214        2.0283825764        1.3859619211
 C         -2.9628610808        1.9390230845        0.4610825179
 C         -3.4742220108        0.5060336925        0.4376155225
 C         -4.4183181059        0.1160110825       -0.5138803634
 C         -4.9458344122       -1.1655219237       -0.5263126926
 O         -5.8706420924       -1.6196428665       -1.3940103211
 C         -6.4400569046       -0.7341751228       -2.3292024050
 C         -4.5083693045       -2.1134128936        0.4409685480
 O         -5.0726839775       -3.3306462323        0.3544228410
 C         -4.7527895402       -4.3076073756        1.3189999600
 C         -3.5677499091       -1.7185116007        1.3806280001
 C         -3.0643192802       -0.4259233623        1.3808337329
 C         -2.4398883075        2.3493154133       -0.9404197821
 C         -1.4973651260        1.3225894714       -1.5852931573
 C         -0.1346940176        1.3314909384       -1.0071423072
 N          0.6490574922        0.2857808612       -0.8802639194
 C          2.0167869407        0.4303247845       -0.4451296303
 C          3.0007506753        0.3674127250       -1.6227367495
 C          4.4023305057        0.1887185559       -1.1114151736
 C          5.4045842768        1.1313228725       -1.3507568411
 C          6.6928587418        0.9452332109       -0.8759951481
 C          7.0373192468       -0.1844148932       -0.1450806332
 O          8.2443873071       -0.4752367982        0.3592496477
 C          9.3129313071        0.4224703506        0.1523678495
 C          6.0159925135       -1.1659352672        0.1157538103
 O          6.3734846058       -2.2381954519        0.8297473258
 C          5.4088276008       -3.2625506704        0.9578350497
 C          4.7661102748       -0.9114716885       -0.3816175340
 C          0.2155348098       -1.0563493430       -1.1814939632
 C         -4.1457652362        2.8643431826        0.8758782035
 C         -4.7155243651        2.4647860651        2.2347854372
 C         -3.7809134153        4.3462559973        0.8865398625
 H         -4.7607681360        0.8293300597       -1.2452265679
 H         -6.9234314913        0.1142021545       -1.8356089369
 H         -7.1903055140       -1.3155058047       -2.8615913262
 H         -5.6947524451       -0.3685748638       -3.0430077492
 H         -5.0161135897       -3.9740787342        2.3270302977
 H         -5.3491301011       -5.1801067260        1.0597328736
 H         -3.6912728260       -4.5711148428        1.2862735101
 H         -3.2270615700       -2.4094877015        2.1340852496
 H         -2.3614922402       -0.1483459901        2.1505733302
 H         -3.2941277342        2.4937274453       -1.6008846592
 H         -1.9247536825        3.3066818145       -0.8566284744
 H         -1.9485728472        0.3310830245       -1.5440236282
 H         -1.3982528967        1.5892533404       -2.6458709677
 H         -0.9315496222        1.4150355466        1.0269088765
 H          0.3020066000        2.2956692756       -0.7848663749
 H          2.2519123841       -0.4175302635        0.2266928526
 H          2.1408365408        1.3697779738        0.0954178214
 H          2.9304269530        1.2748696509       -2.2247429728
 H          2.7467980560       -0.4890978435       -2.2503295353
 H          5.1689022395        2.0183112055       -1.9200557611
 H          7.4369711637        1.6964697379       -1.0871129398
 H          9.1015614679        1.4007171571        0.5943652616
 H          9.5331225282        0.5405548360       -0.9123138636
 H         10.1700605166       -0.0234460961        0.6530835312
 H          5.7388261372       -3.8985338362        1.7769241244
 H          4.4156805582       -2.8469432774        1.1669198804
 H          5.3532668407       -3.8482203660        0.0351291079
 H          2.3700609232       -2.1483796683        0.6274628828
 H          0.1998133456       -1.2347608349       -2.2580288063
 H         -0.7825389878       -1.2378673510       -0.7812248120
 H          0.9105827955       -1.7600817882       -0.7129999526
 H         -4.9309692596        2.7141931033        0.1257405963
 H         -3.9761630694        2.6298376703        3.0122448497
 H         -5.0131373634        1.4189945252        2.2457379424
 H         -5.5899603194        3.0710404143        2.4558558054
 H         -2.9562288349        4.5266415490        1.5690726927
 H         -3.5169644451        4.7083660662       -0.1035337775
 H         -4.6373195065        4.9199316261        1.2311062533
 H         -0.8750280320        2.7498323550        2.9506958927
