  25
        -41.93037683
 C          6.1607037988       -0.2363306779       -0.6515900231
 N          4.9543489222       -0.7764399529       -0.2352505738
 C          3.9577861415       -1.2223253371        0.1415668479
 N          1.4065917093       -1.3527806463        1.0616601497
 C          0.6511912968       -0.3871072913        0.7130985085
 C          0.0558049960        0.6249836851        0.3525429636
 C         -0.7677293644        1.6433981874       -0.0172846301
 O         -0.6790994798        2.7397287726       -0.4453618252
 N         -2.2929031109        1.1325133950        0.1886529856
 C         -3.2900499262        2.1520126031        0.4168887895
 C         -2.5392111618       -0.0939691487        0.0731888274
 O         -3.4843745522       -0.9870194574        0.1262835404
 N         -2.0219619057       -1.3287087405       -0.0899006741
 C         -1.6986476550       -1.8806836562       -1.3768072051
 H          6.8489228530       -0.2034390008        0.1937345427
 H          6.5817149108       -0.8555308416       -1.4445172120
 H          5.9880969720        0.7741537880       -1.0254513020
 H          2.4337461197       -1.3621507183        0.7578811579
 H         -3.3626154011        2.3536946901        1.4862765369
 H         -2.9467464954        3.0557568093       -0.0896724659
 H         -4.2611828484        1.8444236249        0.0348667944
 H         -0.6270379025       -1.7357036008       -1.5127323247
 H         -2.2383823400       -1.4142443722       -2.2030580011
 H         -1.9160478526       -2.9469119171       -1.3441924726
 H          1.0088973186       -2.1660346841        1.5068552539
