25
 energy: 108.297307011727 xtb: 6.6.1 (8d0f1dd)
C            5.41139339746047        1.21590754826892        0.17350098514727
N            1.96747108775431        0.30718856118581        0.00914995350039
C            2.33020091159278       -0.99601378331817        0.00173168234617
N            1.20982897771899       -1.77524908932177       -0.03004039002402
C            0.12341588559690       -0.96923375390542       -0.03619604052342
C            0.57321112645139        0.35166904094884       -0.02738695848591
C           -0.33088397426084        1.45184605648567       -0.02259196616039
O           -0.05294902699724        2.64052060975765        0.00189255006974
N           -1.68637967230012        1.00493139101408       -0.05697489391111
C           -2.72490975155534        2.02560516525783       -0.08259357481907
C           -2.14957018049418       -0.28170626425054       -0.06925756605814
O           -3.32956588452349       -0.55473691083003       -0.09280989426291
N           -1.19266117902108       -1.31406683458087       -0.05131384292577
C           -1.63298204123976       -2.69402339451770       -0.04716145452839
H            5.90259440150279        1.41902116874908        1.14723012911235
H            6.17275926823697        1.40421549006859       -0.61768709646933
H            2.64969109717562        1.04971470127198        0.02917359073170
H            3.33919039407840       -1.32427193203857        0.00929638657939
H           -2.24071814943315        3.00022291079821       -0.07668577139827
H           -3.33146043805245        1.91306432976364       -0.98043991535111
H           -3.36698956406134        1.92501437283533        0.79080368529390
H           -1.28904500364179       -3.20694448878159        0.85339160536705
H           -1.26948280200462       -3.21862508461942       -0.93359033458167
H           -2.72342544000008       -2.68728882811832       -0.05832089491183
H            1.23052701137081       -2.78212221565465       -0.02270547435906
