25
 energy: 41.386015114462 xtb: 6.6.1 (8d0f1dd)
C            4.92712837562792        1.09152154546424        0.28885796756499
N            1.98554800310112        0.32321467274133       -0.25587134649966
C            2.32673187667245       -0.92074882154583       -0.12031368554106
N            1.23849997068620       -1.73986703443184        0.02214082798230
C            0.15094778650349       -0.92529966640409       -0.01702682436372
C            0.60711288272098        0.37556012348536       -0.13750972661543
C           -0.32166179381848        1.49724357017619       -0.03630236333599
O           -0.04130045580548        2.66788862078841        0.04202500207121
N           -1.65866806569196        1.03561682730284       -0.07540899732428
C           -2.73168771836862        2.01280115968373       -0.10638401734432
C           -2.11204735621973       -0.27152028575097       -0.06437962129681
O           -3.29004520543446       -0.54884974060478       -0.10761352713424
N           -1.16027548642567       -1.28422142491924        0.01731259337290
C           -1.59964895756275       -2.66752539054364       -0.02185225065405
H            5.50117049665021        1.12737693938050        1.20427499482795
H            5.64495386785080        1.14679092268795       -0.54213881447943
H            3.74210034590348        1.23030756954731        0.11656892937853
H            3.32876866097812       -1.32498381912764       -0.05718983469291
H           -2.30757370644418        3.01201537850906       -0.11700325689001
H           -3.34275978458703        1.84300904811362       -0.99451152773262
H           -3.36928966399112        1.87507510071191        0.76788033485804
H           -1.27043095486501       -3.20820620021657        0.86478991633133
H           -1.24543902044385       -3.18596755939174       -0.92113768022516
H           -2.68694387974661       -2.65281738235725       -0.03983421940728
H            1.23310466975961       -2.74357851006069        0.01795662246430
