25
 energy: 41.500202085480 xtb: 6.6.1 (8d0f1dd)
C            4.60937501166272        0.94277415112538        0.17632854907022
N            2.14602156266458        0.29073053392568       -0.26171808964807
C            2.41273995110662       -0.96231960579001       -0.09514588347309
N            1.29074227482292       -1.73544063952750       -0.01381613830893
C            0.23596321783738       -0.87504402940903       -0.02017371220133
C            0.75253662743291        0.41022320376352       -0.08660538187240
C           -0.19158717324217        1.52205116881899       -0.03147855171498
O            0.01382633393078        2.70970424346779        0.00195160303345
N           -1.53376690573990        1.03865571650578       -0.05518089187508
C           -2.57635369822767        2.04820000019658       -0.08676146329459
C           -2.01893772328635       -0.24555730990095       -0.06362223658535
O           -3.19644907051924       -0.51873221383188       -0.10301708904740
N           -1.07197792907714       -1.25277138787275        0.00324351095294
C           -1.54079713119565       -2.63075263032707       -0.00849237516556
H            5.08351514682391        0.80721460490046        1.09694567372905
H            5.23194906061991        0.98244199217635       -0.68274403997646
H            3.68426894723454        1.41000917381654        0.19096598029463
H            3.37651572030916       -1.44742511487441       -0.02447190275842
H           -2.10046592444793        3.02086978120684       -0.09265075404485
H           -3.18967668725115        1.92861015106655       -0.97916263247848
H           -3.22428685642367        1.94957932661777        0.78378836956919
H           -1.23001218205664       -3.16267392718884        0.89103600143927
H           -1.20416643036926       -3.16139839736107       -0.90126167124131
H           -2.63101351413054       -2.58885328278084       -0.03400023413591
H            1.21802249698508       -2.74742133316363       -0.02534622334690
