25
 energy: 109.016473080468 xtb: 6.6.1 (8d0f1dd)
C            5.21139157925670        1.19173831475010        0.19091869907386
N            1.98757747719066        0.33959472706420       -0.04870830219542
C            2.32633698882263       -0.96591970073365       -0.01137017798599
N            1.21390869500560       -1.75877204158075       -0.01139683739463
C            0.12821253916760       -0.95430922011798       -0.02901252984828
C            0.58779959979520        0.36042270818301       -0.03826752386600
C           -0.33175379884054        1.44592953156254       -0.04302962001816
O           -0.06704610117986        2.63382981202320       -0.01643920918761
N           -1.67896388680210        1.00262455873969       -0.05634434651800
C           -2.70851003851332        2.03164772930211       -0.08074236223469
C           -2.14863037291179       -0.28034551645058       -0.07079674588016
O           -3.32719165399951       -0.54975698049360       -0.09967721303352
N           -1.18604118508140       -1.30396257686175       -0.03795088026977
C           -1.62458392648796       -2.68391397382494       -0.04666982111919
H            5.73656895802577        1.46577030244038        1.13334311814122
H            5.96023049559934        1.33370699513858       -0.62033809187152
H            2.78846472499628        1.03601489628856        0.03360996396320
H            3.33076914785645       -1.30454282521233        0.00633438408506
H           -2.21829740726359        3.00304437480523       -0.07341596829160
H           -3.31677983553742        1.91819461897603       -0.97788745885981
H           -3.35797413881242        1.92259961493301        0.78900201653083
H           -1.29115077233726       -3.20727145243065        0.85277475236300
H           -1.26839046661471       -3.21412544127284       -0.93320381533811
H           -2.71548206356964       -2.67406098910256       -0.06040329984617
H            1.23169146356111       -2.76662241799633       -0.02832866536932
