25
 energy: 1.327935155978 xtb: 6.6.1 (8d0f1dd)
C            3.52171450439439        1.11365044664836        0.11234170985190
N            2.39753942003510        0.17942976347030        0.04720395446865
C            2.59191560550819       -1.19963065749567        0.03530985237726
N            1.39516244616498       -1.87590795402873       -0.00240878917162
C            0.39817474830219       -0.97406013388976       -0.01012979095731
C            0.94815139473078        0.31974524581024        0.01726848621124
C            0.05748246301294        1.42723129758202       -0.00943585655595
O            0.36670074999007        2.61917308995834       -0.00709903566185
N           -1.32661406591393        1.04075176011568       -0.03735814363064
C           -2.31016720673558        2.10916832987361       -0.05805715154445
C           -1.86181497626504       -0.20560077450415       -0.05305063988336
O           -3.05712025734262       -0.41520854765019       -0.07532911966255
N           -0.94804899906822       -1.26289760910188       -0.04014733586848
C           -1.48201962286934       -2.60990809792554       -0.05116235560938
H            4.06854849751454        1.12409543150225        1.05949893557030
H            4.29004379747173        1.00325207613943       -0.67360908492588
H            3.07478062406551        2.08515620769877        0.03339069400491
H            3.53554930977279       -1.69648745532912        0.01440479674129
H           -1.77046234452502        3.04635683496791       -0.04075977318856
H           -2.92114413107452        2.04298539239474       -0.95918540284017
H           -2.96742989943037        2.03335902353476        0.80873184546969
H           -1.19345634439832       -3.16272470042899        0.84577466453898
H           -1.16885461949268       -3.16122676320117       -0.94064476187716
H           -2.57192781350014       -2.51504434322292       -0.06604908045417
H            1.31331539476013       -2.88597968699069       -0.01697894318139
