25
 energy: -5.929098920103 xtb: 6.6.1 (8d0f1dd)
C            3.33424005837030        1.15408439097665        0.09648467831154
N            2.33718298904074        0.12168694643624        0.03797688848349
C            2.60748094386811       -1.23804079672946        0.03212960725218
N            1.41477408495327       -1.92313571282374       -0.00070724280299
C            0.40215839434165       -1.03460686366391       -0.00941373583779
C            0.93332050532015        0.25323119984338        0.01475234401794
C            0.09990821355130        1.39795449821407       -0.00665098541531
O            0.45894138577534        2.57897767063476       -0.00466493475083
N           -1.28433206403678        1.04666473178522       -0.03254565499570
C           -2.24835915281862        2.13441422558607       -0.05230162194901
C           -1.82916254668643       -0.19886371938703       -0.04829846908693
O           -3.02729131798050       -0.39136117949171       -0.07087588838287
N           -0.93993603419097       -1.28820824990342       -0.03780609831998
C           -1.47549374119414       -2.63029863796975       -0.05758232623535
H            3.83386330317793        1.20217246183455        1.06906379973892
H            4.10647229608274        1.03005778289176       -0.67002809396000
H            2.81824517524698        2.09025694607978       -0.05901559445522
H            3.57556267095419       -1.67438814285082        0.03923657806433
H           -1.69446252898676        3.06768615845840       -0.02980484941929
H           -2.85625456405548        2.07729799790812       -0.95589007301657
H           -2.90722834365882        2.06306358697057        0.81344044195312
H           -1.17442366408403       -3.18075054801892        0.83612050090369
H           -1.14981243372171       -3.16600535038958       -0.95123687501100
H           -2.56256457342876       -2.54100670725293       -0.07222812470883
H            1.35152885672126       -2.92876083475934       -0.01559010840691
