25
 energy: 38.497034544480 xtb: 6.6.1 (8d0f1dd)
C            4.89198255843168        0.99459738179986        0.26515739640871
N            2.00440065255914        0.31437407220575       -0.29705457709345
C            2.33798683650370       -0.93003021467465       -0.13110708009736
N            1.24256911035091       -1.73479216277483        0.02088856858578
C            0.15827896089096       -0.90991456607234       -0.01204066167262
C            0.62555368145133        0.38779954831054       -0.12674399305444
C           -0.30717505295307        1.50224599350290       -0.02276685665959
O           -0.07049997063713        2.68019201102920        0.04279058776053
N           -1.64051240336854        1.03171491929592       -0.06402313572436
C           -2.70226817831758        2.01754265000853       -0.10129859661471
C           -2.09986537555212       -0.26887840506069       -0.06218088597294
O           -3.27601929346053       -0.55073924271010       -0.11159184264442
N           -1.14684786280914       -1.27881438753285        0.02509764202460
C           -1.58892203738818       -2.65985589031463       -0.01643103618545
H            5.41531684276698        1.06238818134883        1.19518057119268
H            5.57979722070477        1.11721260523202       -0.56459344869092
H            3.74771512194432        1.10057769012370        0.11685113953039
H            3.32864953097646       -1.34649247571857       -0.03806735490075
H           -2.26633360187818        3.01331989843761       -0.11295830099923
H           -3.31103515365637        1.85609650290443       -0.99045710611342
H           -3.34336186453181        1.89117067458830        0.77049365930576
H           -1.26435556019438       -3.20145510351425        0.87244151239336
H           -1.23673806275999       -3.17921955543313       -0.91555977270762
H           -2.67672437221843       -2.63910533952034       -0.03822550650532
H            1.22250942331933       -2.73849340030060        0.01395148410289
