25
 energy: 42.910058542861 xtb: 6.6.1 (8d0f1dd)
C            4.49330525362838        0.94317314947983        0.16299675938976
N            2.18227659015130        0.26856737691526       -0.22028390477520
C            2.43363732938929       -0.98993294968584       -0.07942922655066
N            1.30243233442526       -1.75412631503677       -0.01202381509640
C            0.25975958139535       -0.87849858170133       -0.01997963497145
C            0.78625754334165        0.40463814883603       -0.07284908490889
C           -0.15931913210231        1.51380628378649       -0.03007705167329
O            0.05437908628412        2.69839349176681       -0.00164030588422
N           -1.50667036194767        1.03576134528041       -0.05327160987429
C           -2.54290672623294        2.05218241860186       -0.08430903353877
C           -1.99822320366618       -0.24365564990634       -0.06368662167110
O           -3.17596629739090       -0.51536514608715       -0.09960736681347
N           -1.05244009261315       -1.24914975553733       -0.00599574988558
C           -1.52833418048555       -2.62417483408006       -0.01020113961403
H            4.95669822615092        0.79689789370478        1.08717306757660
H            5.12580566570740        0.95236865168814       -0.68824579928942
H            3.68684897622514        1.58336020610644        0.19344838076202
H            3.39719578235562       -1.47622891290871       -0.02650268538008
H           -2.05827229861141        3.01933827633354       -0.08834719069985
H           -3.15722034888588        1.94437662670234       -0.97792366121679
H           -3.19332580889507        1.96266241429346        0.78572934005341
H           -1.22095641408492       -3.15129290473622        0.89315189679877
H           -1.19298371961225       -3.15622177024615       -0.90188526264779
H           -2.61907670227262       -2.57643328949956       -0.03366730421035
H            1.20740561000862       -2.76530252221460       -0.02647770587234
