25
 energy: -3.381138272074 xtb: 6.6.1 (8d0f1dd)
C            3.42819423879347        1.13425378449467        0.10387316270496
N            2.36634723737946        0.15114518507532        0.04353903400853
C            2.60051891628991       -1.21948825403890        0.03398302527579
N            1.40424735046742       -1.89959389199542       -0.00069394087774
C            0.40021589789920       -1.00367516166743       -0.00945653558362
C            0.94128266138584        0.28671683238889        0.01605735969321
C            0.07862941004008        1.41266380916419       -0.00762591771708
O            0.41330141864146        2.59938950945850       -0.00558871152602
N           -1.30534521345244        1.04382320870726       -0.03462488625939
C           -2.27929489789973        2.12186905234676       -0.05481280919575
C           -1.84593108430747       -0.20149370503072       -0.05059106671803
O           -3.04281241984842       -0.40160905859634       -0.07328855692062
N           -0.94400870598407       -1.27461113182272       -0.03899654041284
C           -1.47693951548124       -2.61951601364512       -0.05496710625374
H            3.95234425937987        1.16531269222158        1.06396220100260
H            4.19839466346728        1.00928364533440       -0.67059887755426
H            2.95097221306209        2.09145684947878       -0.01837859688027
H            3.55504349997498       -1.69337070528277        0.03369434275029
H           -1.73209395807141        3.05662852701058       -0.03449057930287
H           -2.88910385132911        2.06093430676330       -0.95701939685173
H           -2.93784695702978        2.04863664778876        0.81109845995762
H           -1.18101141672308       -3.17037078398448        0.84031073594651
H           -1.15684455974637       -3.16232941115665       -0.94620265710950
H           -2.56549476289518       -2.53013603416753       -0.06985585980520
H            1.33084202204716       -2.90761758510177       -0.01525763152956
