25
 energy: 44.819248800679 xtb: 6.6.1 (8d0f1dd)
C            4.08476027418375        1.05280874231775        0.15033626353374
N            2.31395681679219        0.20902105701215       -0.14597991711466
C            2.49972999173636       -1.08745521056744       -0.04396493841444
N            1.33685038377725       -1.80407658426150       -0.00196809194707
C            0.33060382549716       -0.89556728354538       -0.01349440502526
C            0.88978787099447        0.39142825321817       -0.02721044433987
C           -0.05363977608524        1.48984560248440       -0.02154533858590
O            0.18196406649067        2.67594445424486       -0.00729909228939
N           -1.42307191039724        1.03468047549622       -0.04998135731066
C           -2.44112420095735        2.06883614562455       -0.07455251071394
C           -1.93729229595006       -0.22499138235736       -0.06213763726182
O           -3.12153468599932       -0.47217097658985       -0.08876307773112
N           -0.99753994941311       -1.24036131174163       -0.02525211083391
C           -1.50866657821931       -2.60228081497041       -0.02289136572834
H            4.60276590884076        0.95673245499111        1.06850887312216
H            4.75472115292766        0.97716044338748       -0.69217373396156
H            3.57558353329510        1.96738148510917        0.19036793301162
H            3.45603364310540       -1.57902534610815       -0.01839938599857
H           -1.92997104591876        3.01585383281285       -0.07310541771074
H           -3.05693120566828        1.98392096853515       -0.97011652241024
H           -3.09405027662892        1.98968154365527        0.79551120113268
H           -1.22277749346108       -3.14174465522476        0.87834755461813
H           -1.19888976262584       -3.15862125642235       -0.91222147314105
H           -2.60086016255594       -2.53173018925863       -0.03958276978226
H            1.23981195935899       -2.81745936395622       -0.01014032390771
