25
 energy: 108.778809104093 xtb: 6.6.1 (8d0f1dd)
C            5.51520638549926        1.25965192543891        0.18734350053960
N            1.96423670053839        0.30988563464581        0.00854088588546
C            2.33236197232039       -1.00343030150470        0.00067391570668
N            1.20614195309384       -1.78234024156607       -0.02733061351420
C            0.12490370418793       -0.96879027148909       -0.03666865111912
C            0.56761036376035        0.34618750763908       -0.02155569914870
C           -0.33950643894495        1.44396336946067       -0.02334499483295
O           -0.07038921062313        2.63458746222264       -0.00186985034539
N           -1.69096251428676        1.00156202599786       -0.05987675920922
C           -2.71269793339518        2.03718126698861       -0.08299454557378
C           -2.15099865681410       -0.28251046137983       -0.06757534107711
O           -3.32996322464191       -0.55727230759866       -0.09220700992711
N           -1.18922512451777       -1.31219416152326       -0.04977558314550
C           -1.62524489077109       -2.69190482017003       -0.04742905947053
H            6.02682209189026        1.44187624002391        1.15728544234617
H            6.28211154496373        1.38371130823945       -0.60488067476830
H            2.57556386501721        1.13106019505708        0.02259372234640
H            3.33751553693131       -1.34939071518208        0.00810508887340
H           -2.20393877716181        2.99826475176698       -0.07695930216166
H           -3.32005691953840        1.93471851116604       -0.98095850348742
H           -3.35842528007440        1.94283044605434        0.78932799054100
H           -1.28045672273622       -3.19984150054379        0.85455450477867
H           -1.26069159934934       -3.21183278065466       -0.93517797590126
H           -2.71459776538188       -2.68380634043688       -0.06008612031498
H            1.21843238991145       -2.79096260306160       -0.02617594700642
