25
 energy: 49.678581573616 xtb: 6.6.1 (8d0f1dd)
C            4.97482580059409        1.12408569779195        0.27867388508559
N            1.97139822921202        0.32236425175546       -0.21620064363727
C            2.31411913948556       -0.92219754752498       -0.09683392216389
N            1.22621346881865       -1.74345067330116        0.01939059265569
C            0.13958820649839       -0.93367764087623       -0.02399643491894
C            0.60139219634443        0.36820676284539       -0.13257109558896
C           -0.32938486337240        1.49127677829438       -0.04929610626274
O           -0.05910165204243        2.66518004534642        0.02281866010380
N           -1.66574940053488        1.03536156381107       -0.07837185374626
C           -2.74582136996452        2.01771070471821       -0.10203506090873
C           -2.11720590879093       -0.27024079143722       -0.06366910449918
O           -3.29834161525486       -0.53599418318817       -0.10043062666672
N           -1.17214986104949       -1.28764235975736        0.00543654591303
C           -1.60851243831382       -2.67213925057643       -0.02731409658307
H            5.53889135836400        1.22902014037902        1.20530878426745
H            5.72007179133883        1.18125949021698       -0.53595974509072
H            3.68532015877038        1.21885627810172        0.11069049396046
H            3.32356455663246       -1.30650233705209       -0.05861315090585
H           -2.32112581926864        3.01617802059609       -0.10972460613368
H           -3.36092080987136        1.86076248492908       -0.98807674362396
H           -3.37677521534176        1.88830358411988        0.77864123671457
H           -1.27649353705624       -3.19977071054340        0.86410288975219
H           -1.25538696924286       -3.19346641513081       -0.92416950465437
H           -2.69536109490752       -2.66338740938005       -0.04091641220491
H            1.22534189575508       -2.74769338270761        0.00380767805010
