25
 energy: 108.070804517402 xtb: 6.6.1 (8d0f1dd)
C            5.28912236823386        1.20368542072261        0.16691542815903
N            1.96201809720305        0.31586063575618       -0.00703870280137
C            2.32293566802486       -0.98709941764113       -0.00442481317106
N            1.20677507434119       -1.77552553552833       -0.01930981344082
C            0.12343589232861       -0.96521084965770       -0.02956954294344
C            0.56998517247981        0.35033231928287       -0.01851203290411
C           -0.34317178153471        1.44518698185035       -0.03042126151392
O           -0.08157196934647        2.63395092307799       -0.00704321725827
N           -1.69752833011992        1.00406876276258       -0.05884960030065
C           -2.73956152019998        2.02298033081529       -0.08136925783701
C           -2.15322404736853       -0.28207340317740       -0.07180619806324
O           -3.33194715674568       -0.55630558581944       -0.09798720768875
N           -1.19033833823617       -1.30960052782666       -0.05057161825083
C           -1.62854460612297       -2.69160936734244       -0.04735533758216
H            5.78951649614916        1.43322547811935        1.12454038921519
H            6.05686100149364        1.39154392914006       -0.61711516480240
H            2.70294326919842        1.03078136424931        0.03316830833750
H            3.32685512906747       -1.32783647078775        0.01239643838016
H           -2.26446541870711        2.99872251691595       -0.07685562694417
H           -3.35429582706532        1.90276484541401       -0.97393681939597
H           -3.38729848205892        1.91099291629646        0.78908023014539
H           -1.29398043076860       -3.21659720968203        0.85152761986229
H           -1.27050254648666       -3.22570292951615       -0.93112914210638
H           -2.71736953712785       -2.67901622850775       -0.06162378197549
H            1.22009028046855       -2.78311508326666       -0.03167649484720
