25
 energy: 27.031496241059 xtb: 6.6.1 (8d0f1dd)
C            3.79859090219304        1.02854797568779        0.11772879966478
N            2.46535646385067        0.23591185241753       -0.05597207201700
C            2.56077096600573       -1.14009501203666       -0.00837200255534
N            1.36689419201817       -1.80850444649997       -0.00910297009528
C            0.37817642466445       -0.89656579061349       -0.01423057174838
C            0.94098445676894        0.40965593562111        0.00172868003189
C           -0.00616306157483        1.47752019949344       -0.01444698767986
O            0.22927484745800        2.67791346604633       -0.00649720073721
N           -1.39423610697697        1.03409856304592       -0.04555833535204
C           -2.40447334639169        2.07623628688997       -0.07082489341268
C           -1.91101325980875       -0.21936195456643       -0.06038992827661
O           -3.10031793580248       -0.45903593555867       -0.08526773524111
N           -0.96971688638461       -1.23705211466132       -0.03543809538226
C           -1.49544047592126       -2.59649652563319       -0.03197394592191
H            4.39928524735542        0.98037687212999        1.03347618608293
H            4.57396573920909        0.97833735263421       -0.68312079851433
H            3.44604583321360        2.02497225722971        0.15055327362444
H            3.49933353577475       -1.63786466889582       -0.01164932036030
H           -1.88349630109361        3.01854168916587       -0.06597116853651
H           -3.01958931190961        1.99798346874118       -0.96833005259827
H           -3.06043297546338        2.00033717660900        0.79770099755916
H           -1.22106658212412       -3.14894558450006        0.86787825884352
H           -1.19747524332663       -3.16339154885631       -0.92003142445319
H           -2.58894702511688       -2.51467391062570       -0.04411814965210
H            1.26129391426779       -2.82254911594537       -0.02093385463314
