25
 energy: 60.656328136121 xtb: 6.6.1 (8d0f1dd)
C            4.97248601010864        1.19824521250666        0.24330533705285
N            1.95098113523885        0.31687424753729       -0.17290000975599
C            2.30087813058136       -0.92536764654809       -0.06913735508186
N            1.21888421208449       -1.76221622974775        0.01606436050816
C            0.12735641168698       -0.95655051591085       -0.02569546969699
C            0.58832571251682        0.34724486306805       -0.11321164352786
C           -0.33518291218693        1.47146495781091       -0.05428870246978
O           -0.06823652022985        2.64690388819958        0.00019908250152
N           -1.67119848331285        1.02096931712746       -0.06908811985299
C           -2.73790816534379        2.01971755066854       -0.09396481127754
C           -2.13306812474033       -0.28078021626394       -0.06136475529406
O           -3.31421624690008       -0.54296129311982       -0.09820271155196
N           -1.18498724255742       -1.29887225069921       -0.00580919657583
C           -1.61432642853104       -2.68238172736768       -0.03416879764839
H            5.56366522362607        1.30452487233208        1.17828897686097
H            5.72162251486581        1.27744007785777       -0.57586894739109
H            3.57348733553916        1.22624722183962        0.09558769569511
H            3.31271487102232       -1.28314462403001       -0.04969851377019
H           -2.28494627451314        3.00851992223783       -0.09394555564909
H           -3.35171727603810        1.88856778170194       -0.98697269152082
H           -3.38199600171624        1.90840268388440        0.78030837657291
H           -1.26868060022727       -3.19864644447510        0.85936040545451
H           -1.24881421506650       -3.19700881394946       -0.92836192135195
H           -2.70173694781615       -2.67799589785693       -0.04458423730143
H            1.23285136290832       -2.76847946946379        0.00464067501822
