25
 energy: 70.242228107259 xtb: 6.6.1 (8d0f1dd)
C            4.98631123705943        1.12380480867116        0.26580769587589
N            1.95829540071364        0.33187213466117       -0.14575540627437
C            2.30092807364397       -0.91700364717226       -0.06260121414048
N            1.21790992877262       -1.75072362735108        0.00840337708031
C            0.13083982410396       -0.93704117558013       -0.02367611141346
C            0.59283430715675        0.36809633355603       -0.09806967093151
C           -0.33387326755757        1.49145696818667       -0.04209797849342
O           -0.08321076092345        2.67040616734706        0.00016355209032
N           -1.66261079317507        1.02911007612411       -0.07094158763737
C           -2.73208300551379        2.01105457790399       -0.09774285461284
C           -2.12217824946971       -0.27321064659563       -0.06298022353781
O           -3.30301135902990       -0.54436741290261       -0.09396272955588
N           -1.17888010599727       -1.29203109290530       -0.00695389022567
C           -1.61066017266217       -2.67697336608604       -0.03311300991340
H            5.59354306805977        1.22786536133017        1.17688764378153
H            5.70297096214961        1.13271995695073       -0.57089879927061
H            3.49963144531529        1.25664925200042        0.09796250698598
H            3.31307556657712       -1.27331757034041       -0.02808532478727
H           -2.30538469979841        3.00951961157920       -0.10942159882162
H           -3.34499576595497        1.84553577222117       -0.98424802691376
H           -3.36549307189867        1.87394339987873        0.77887464475995
H           -1.26950705287834       -3.20282299149109        0.86082496365071
H           -1.24837411833356       -3.19093134428302       -0.92905200013679
H           -2.69858191438732       -2.67108643976336       -0.04977332493312
H            1.23480590654364       -2.75869407617498        0.00310548816280
