25
 energy: 108.199767393162 xtb: 6.6.1 (8d0f1dd)
C            5.49417814228327        1.07397766343826        0.20400077669847
N            1.95270858189724        0.34575515194306        0.01591614784551
C            2.34948081396050       -0.95422310968363        0.00710020183154
N            1.23260407583813       -1.74523061584394       -0.01649424725202
C            0.13864041805039       -0.95109724606326       -0.03111256749920
C            0.56831714642719        0.36866457503050       -0.02413598145249
C           -0.34498293865285        1.45606759284632       -0.03365070029586
O           -0.07047406732168        2.64648788922419       -0.01942375502106
N           -1.69314268647186        1.00715756831144       -0.06039782009118
C           -2.73234423600816        2.02755956919452       -0.08202709790240
C           -2.14585893315221       -0.28101294980871       -0.06734423897375
O           -3.32370516259220       -0.56076752541910       -0.08725720443851
N           -1.17516351083094       -1.30359862647373       -0.05072585117712
C           -1.61367269619120       -2.68273752460981       -0.05219631331388
H            5.97670523991397        1.41798135124034        1.14268176017385
H            6.18944657728980        1.33130390758486       -0.62202492629851
H            2.54787005981507        1.15244581753612        0.01290422913872
H            3.35952641674283       -1.28546851509814        0.01151888465241
H           -2.24396184528414        2.99988732496551       -0.07712394558298
H           -3.34508948673299        1.91552143369145       -0.97661412877238
H           -3.37440348279906        1.92391836103817        0.79241201869504
H           -1.27925300278078       -3.20128494247472        0.84792282002163
H           -1.25685491434145       -3.20777297434305       -0.94033150049209
H           -2.70381115022524       -2.67324319498667       -0.06487365350377
H            1.25476579663076       -2.75217334173744       -0.02349475288180
