25
 energy: 42.707987108374 xtb: 6.6.1 (8d0f1dd)
C            4.48405860924501        0.93599399801918        0.16520510642239
N            2.18059950215845        0.26547754471580       -0.19746381653238
C            2.43895106679934       -0.99395793157951       -0.05959248192153
N            1.30678372306719       -1.75547940981053       -0.00211151561790
C            0.26439805728333       -0.88246826016734       -0.01720904651762
C            0.79130059831433        0.39914388113030       -0.06678081259704
C           -0.14437110168615        1.50930437330704       -0.03744570237077
O            0.09945513095446        2.68696085850639       -0.02349826765421
N           -1.49054397797334        1.03549617202154       -0.05262997775687
C           -2.52344715485526        2.05514877376069       -0.07721919143455
C           -1.98748957221222       -0.24320791653562       -0.06183141824732
O           -3.16770859577388       -0.50998501224861       -0.09400312533248
N           -1.04905867593960       -1.25095670147419       -0.00964766996153
C           -1.52880661237511       -2.62338583272033       -0.02275095002420
H            4.97090259175568        0.80318917475991        1.08063459811266
H            5.08547776931811        0.91920650087351       -0.70283316341045
H            3.66246207900466        1.55293935023743        0.18253542470868
H            3.40249719982602       -1.46956834605725       -0.00770899612387
H           -2.03254803673816        3.01742491943061       -0.08198300743131
H           -3.14163237389209        1.95626863740269       -0.96898786544013
H           -3.17097504615032        1.96859304232993        0.79565688476129
H           -1.22599956610296       -3.14580355355692        0.88172262855750
H           -1.18743246169197       -3.15372519489328       -0.91308744682984
H           -2.61965068942219       -2.57746168485718       -0.04765680957775
H            1.21497704966778       -2.76478053285928       -0.01373431055002
