25
 energy: 25.677484357267 xtb: 6.6.1 (8d0f1dd)
C            3.79392406929654        1.02425830396592        0.11863718630040
N            2.46396253569955        0.23581493997045       -0.04074531155028
C            2.56346889247215       -1.14142127431153        0.01341424171786
N            1.36929779957764       -1.80942868246685       -0.00228690647724
C            0.38107315195187       -0.89906313401018       -0.01298232603957
C            0.94417853524120        0.40534581037962        0.00290221051333
C            0.00282181428389        1.47483410044620       -0.02099894842112
O            0.25946553380332        2.67139431201554       -0.01671286735688
N           -1.38385512983428        1.03717126059551       -0.04507912061909
C           -2.39280709711883        2.08043286110822       -0.06644346387672
C           -1.90426907614985       -0.21602854654523       -0.05874137212950
O           -3.09470783216092       -0.45404506874023       -0.08217563515118
N           -0.96769283205787       -1.23691957352712       -0.03707141991996
C           -1.49387084604060       -2.59660586485827       -0.04087514619761
H            4.40513516766218        0.97604333019028        1.02932447028296
H            4.55483580976187        0.96293967372968       -0.68940205054512
H            3.46125272267014        2.02487484529789        0.14631711729802
H            3.50358262356276       -1.62973368586748       -0.00301409399313
H           -1.86995090201014        3.02143151799286       -0.06068552003984
H           -3.00968052708736        2.00453413185852       -0.96289196955506
H           -3.04701305159628        2.00316190363937        0.80339807129826
H           -1.21348825797228       -3.15550117091730        0.85346991884755
H           -1.19253894973283       -3.15785175580557       -0.93159076904563
H           -2.58796688383859       -2.51736600042360       -0.05242712159251
H            1.26039166185034       -2.82216521508672       -0.01580746473815
