25
 energy: 10.815940399372 xtb: 6.6.1 (8d0f1dd)
C            3.35350440630303        1.01496048403115        0.41451228343807
N            2.36413082583334        0.13092975318825       -0.18219621905659
C            2.58776785139762       -1.24179794747007       -0.38336354445581
N            1.35908252224766       -1.85801753837724       -0.48722564746325
C            0.38962426027221       -0.95395670431858       -0.24010114241339
C            0.94029213307416        0.31720356301106       -0.10298373301391
C            0.11385387256320        1.49296762884049       -0.14740459038911
O            0.50010129890044        2.65654119232112       -0.14716537866939
N           -1.33461504541894        1.22376601600823       -0.17138513439820
C           -2.40078047895178        2.27491427799615       -0.27742983299910
C           -1.80829779596326       -0.03584434130689        0.10010900227690
O           -2.97366418954354       -0.21891702037452        0.36492934511091
N           -0.92339352041127       -1.19792008025397        0.04059766930609
C           -1.28765631903370       -2.59760985227988        0.27557222927870
H            3.48724174331633        0.88879787106680        1.50898065517133
H            4.33139705327573        0.84099988613425       -0.05286191403223
H            3.03383581868223        2.04292237919247        0.24633468411045
H            3.51847623281895       -1.72301619730887       -0.62627504643851
H           -1.93938584566450        3.24230859350663       -0.45285949189601
H           -3.11602890155875        2.07212778853693       -1.08577183959482
H           -3.02099278726097        2.35797352081426        0.62531498479513
H           -0.92083934014723       -2.95390061185895        1.25182322410094
H           -0.82399923278573       -3.24071818020420       -0.49009060374964
H           -2.36388869588852       -2.74499051646801        0.20596868572697
H            1.19183803435102       -2.82453202516535       -0.72909802176974
