25
 energy: 101.977006607118 xtb: 6.6.1 (8d0f1dd)
C            3.30678180534335        0.48218878298086        0.80615300337651
N            2.48769257237995       -0.44543802729182        0.06255838750538
C            2.95533905720000       -1.29603764234993       -0.88988682874261
N            2.35034153391137       -2.11067419126014       -1.63854033546136
C            0.33237449806964       -1.43021292820848        0.20034631039443
C            1.07767142896431       -0.28168628020478        0.18301898562004
C            0.61957142306743        0.93781567791526       -0.26603764683929
O            0.79752330264134        2.11540963076130       -0.24399415446542
N           -2.62440200408177        2.53284244308487       -0.24232021190727
C           -3.69882655292769        3.39852326094663       -0.45170835006673
C           -2.10777354812071        1.48459289305023       -0.09792319855223
O           -1.37574434391768        0.58143303310317        0.02516612186983
N           -0.14384109370398       -2.32691972794991        0.85970207846991
C           -0.85205424942965       -3.53380222555433        0.70303444164896
H            2.88848211518885        0.58576429395128        1.81171276175505
H            4.31201609981948        0.06671333782489        0.87050110795601
H            3.35073323165680        1.47762673647064        0.34320156263640
H            4.03838967014597       -1.32360645203525       -0.95476471013505
H           -3.24975250854670        4.33853769924333       -0.76583076295685
H           -4.36159872042151        3.02225910522340       -1.23091305416963
H           -4.24556348276538        3.53410429132211        0.48048794689292
H           -0.82246463672760       -3.98556758554452        1.69582829072733
H           -0.37966359323336       -4.20311920496595       -0.01828592997942
H           -1.89912616493173       -3.36746305398347        0.42732948301722
H            1.33489518542922       -2.06797046945108       -1.72271938449965
