25
 energy: 92.481958833177 xtb: 6.6.1 (8d0f1dd)
C            3.35288870273629        0.65712648138403        0.72740025313923
N            2.42468710971110       -0.06120035959172       -0.09929134501767
C            2.64311871932122       -1.16018184092386       -0.80981306076451
N            1.50658314615125       -1.88750605416803       -0.91878820661443
C            0.49256554382253       -1.25582702053847       -0.11277009751640
C            1.00920880518215        0.07997686796342        0.10019924019715
C            0.47932715666716        1.28901943259332       -0.14992871931013
O            0.78860953253776        2.44003934024023       -0.25624564778002
N           -1.88155197318451        2.17795926081802       -0.33574281827756
C           -3.08188745119521        2.95448240550055       -0.45734286217421
C           -1.88113721965794        1.01258911483910       -0.01609029368070
O           -2.14511358901645       -0.06217821520093        0.33204546461792
N           -0.48148741295471       -1.70079840615372        0.51878744698394
C           -0.98644503635572       -2.99318497332416        0.64850211218374
H            3.10613673064654        0.47061643834005        1.78134220491240
H            4.36109926250923        0.29372915451315        0.54808826437294
H            3.32482312062361        1.72639288301458        0.57648652839471
H            3.56213281439196       -1.38980885068673       -1.30161520108426
H           -2.70405875057434        3.88408047857470       -0.84505977367655
H           -3.80100485071729        2.50142447513855       -1.14615059704738
H           -3.56907659205261        3.07722658352443        0.51084226041061
H           -0.79615994088423       -3.24348977202181        1.69847652395849
H           -0.47707881184461       -3.69025466570419       -0.01022898658624
H           -2.07228479789903       -2.98394400340620        0.48956663567677
H            1.30932076263946       -2.58879962138246       -1.60472593452448
