25
 energy: 100.817957075833 xtb: 6.6.1 (8d0f1dd)
C            3.31678975282751        0.49729759105161        0.76026858246433
N            2.49212859129537       -0.46431762431283        0.06560552925448
C            2.97687537567916       -1.31701139207691       -0.88125257413721
N            2.36238085014619       -2.10818734083204       -1.64868653854576
C            0.31740068064829       -1.44322989293263        0.20401392829872
C            1.07614518553605       -0.29177396350920        0.18261100169206
C            0.63226578570887        0.93268369852515       -0.26540588515438
O            0.78120109938793        2.11437519818158       -0.24460721545077
N           -2.73266993944864        2.47886462073276       -0.20174259516895
C           -3.74623698524662        3.41380687101263       -0.44744967751456
C           -2.11345370845944        1.48470698325113       -0.10465484711516
O           -1.37734919725092        0.58553510783887        0.01463293274133
N           -0.15334725143711       -2.33744325948248        0.88005105457497
C           -0.84583116772377       -3.56534100793416        0.71320442844177
H            2.96162617314375        0.61201856558942        1.78595812271528
H            4.34424690823779        0.14117052382934        0.77996951654800
H            3.29355446473579        1.48082515995073        0.27964899669394
H            4.06332136040760       -1.34832058832864       -0.91120809784759
H           -3.27312772771939        4.34946408380208       -0.74853819300781
H           -4.41047098750371        3.07387898956803       -1.24283301114279
H           -4.31183361613160        3.57421303122834        0.46992105442265
H           -0.81724392144759       -4.03550892110872        1.69841645151557
H           -0.38974284853214       -4.23903382113355       -0.01823482992792
H           -1.89218515010733       -3.40919560894746        0.43979338873612
H            1.34084287397231       -2.04128138436728       -1.66646810697317
