25
 energy: 19.089428267582 xtb: 6.6.1 (8d0f1dd)
C            3.34294686771864        0.95526124279045        0.50144789757127
N            2.35262214815664        0.13988439621370       -0.16952631630100
C            2.57998611389326       -1.21461342878803       -0.42427437714183
N            1.35889745450484       -1.82079193651249       -0.59268151224283
C            0.38888081522787       -0.94694241908421       -0.27275480712924
C            0.93076531304682        0.32646053954147       -0.09082521371022
C            0.13646898798063        1.51733216311283       -0.17612666633012
O            0.56403830383408        2.66389141487793       -0.20779598523364
N           -1.34033150343196        1.29238642308797       -0.20165029677958
C           -2.44159465621137        2.33012723988047       -0.33551255918958
C           -1.78928561737318        0.02979974128883        0.10295644516989
O           -2.93961809503114       -0.17080566179967        0.40979914778630
N           -0.91154656575238       -1.17729917493231        0.04726520729106
C           -1.26357968605108       -2.56375735230379        0.36867083436496
H            3.43234283290838        0.74279181101553        1.58032778070184
H            4.32219499655430        0.76096168442552        0.05486606794623
H            3.06370585017253        1.99594065271020        0.38621479412764
H            3.50082051796721       -1.62902672047696       -0.78675729125260
H           -2.02155612367317        3.29293066706794       -0.61264266451392
H           -3.20164173728763        2.05377396964841       -1.08527163760924
H           -3.02929319781590        2.49147705804053        0.57971141633423
H           -0.87153729826253       -2.85173860970405        1.35625599488380
H           -0.81123175529916       -3.24995138314742       -0.36211367408142
H           -2.34299335586531       -2.72096609229087        0.33760150261274
H            1.22144397571919       -2.78144281025460       -0.87075892960591
