25
 energy: 92.499816191604 xtb: 6.6.1 (8d0f1dd)
C            3.37049031382755        0.81788565666515        0.60659461654747
N            2.40839941225010        0.00923126724856       -0.08868686201201
C            2.63617190186908       -1.21544557667070       -0.61949304920473
N            1.43472523406113       -1.82523938254405       -0.85387114150175
C            0.43363400474610       -1.12118821849265       -0.19451824494643
C            0.99618854906290        0.21252556101334        0.01191513053363
C            0.53572763637476        1.44165155173869       -0.23757495141906
O            0.74310540673929        2.61124770365117       -0.22234521037334
N           -1.74176984854559        1.81530085987374       -0.28489415748282
C           -2.84123528406809        2.74942921646480       -0.43261412869726
C           -2.07403499158774        0.71864457966434        0.08745254621788
O           -2.57045010949738       -0.25195240120358        0.44892128369729
N           -0.62720146651943       -1.51617898464904        0.34824436851189
C           -1.08119587696963       -2.83250634755238        0.52653532954465
H            3.34155341739844        0.62062771157355        1.68812768051584
H            4.37236317677505        0.57575397379213        0.25697767815381
H            3.17416992322252        1.87685638484040        0.46473285406429
H            3.55902494742988       -1.55541111496797       -1.03409968146523
H           -2.38515650455130        3.65737685236622       -0.78319393827586
H           -3.58457948078608        2.36366489546733       -1.13572519703172
H           -3.34478043463111        2.89598400146550        0.52448651558743
H           -0.79954154633096       -3.06884979002087        1.56058111092273
H           -0.64373069493377       -3.54968055852710       -0.17292885282494
H           -2.17639855561936       -2.84627255637673        0.42308803466721
H            1.28733467569940       -2.75717214064485       -1.18824837589400
