25
 energy: -6.159060813271 xtb: 6.6.1 (8d0f1dd)
C            3.26623719909985        1.15801483010754        0.14943692086175
N            2.30621223660174        0.11289791538723       -0.00794678410136
C            2.59068416387318       -1.24367220098513       -0.02980341531523
N            1.39390740348458       -1.92202031126549       -0.08218988089936
C            0.38384313847442       -1.03229636367743       -0.04181640880360
C            0.91104482192490        0.25141347339974       -0.00276771615468
C            0.09157608858861        1.40141820006326       -0.03292258016738
O            0.45525583034572        2.58115682839821       -0.04442384628557
N           -1.31391624303628        1.06758764664647       -0.04912643700548
C           -2.26837379502009        2.16941036684768       -0.08851999041538
C           -1.85678456762528       -0.17924650707024       -0.01552214643746
O           -3.05432552434283       -0.38560905216336       -0.00250438213981
N           -0.95840286511032       -1.27356757455990       -0.00407937041045
C           -1.44737408439376       -2.63492391770996        0.00253545985771
H            3.69007843203955        1.16962869609910        1.16111330872738
H            4.08008946401456        1.02342677341891       -0.56664355074971
H            2.76373306919095        2.10502762475651       -0.02941381386590
H            3.56184590628820       -1.67933208019843       -0.07572903362053
H           -1.70232656795945        3.09874382717995       -0.10529308354701
H           -2.89417332736768        2.10082192549353       -0.97870433454163
H           -2.91687886928052        2.14037732579843        0.78808861935342
H           -1.12484469537512       -3.16008461293611        0.90668733180886
H           -1.09298507589083       -3.18326308633522       -0.87603670900480
H           -2.53450574944595       -2.59038684805820       -0.02094342946403
H            1.31872018155050       -2.92410554498422       -0.13180038210408
