25
 energy: 89.788462283371 xtb: 6.6.1 (8d0f1dd)
C            3.30862663414818        0.50600041701492        0.86538159080926
N            2.47776540364204       -0.21945970666821       -0.02942512727011
C            2.76193114011469       -1.18508011123176       -0.90615139278940
N            1.69901441142448       -2.05578141018363       -1.01106051052136
C            0.61845633622679       -1.51533032520225       -0.08971514407597
C            1.06732213815209       -0.15959137048810        0.15691444240901
C            0.60134304759828        1.03889047272851       -0.16265020108257
O            0.72814102014833        2.21634795290265       -0.25559444294351
N           -2.35996410410751        2.45920762505375       -0.30583788215447
C           -3.47888911957414        3.28489966251647       -0.46829941268950
C           -2.08946409648318        1.33560404531708       -0.05314373123426
O           -1.54592539411417        0.33707139333911        0.14337445273018
N           -0.29424190468538       -2.04092120155952        0.56915938937599
C           -0.84742276904866       -3.32593336055926        0.65255182654451
H            2.75699439570570        0.55420350569328        1.80164022849391
H            4.21255555783175       -0.07525078179062        0.99407299383561
H            3.54036170589225        1.52177522909077        0.53351039516326
H            3.73954560823935       -1.31288569547446       -1.31847526018553
H           -3.05126356526575        4.21791213255193       -0.81543217987304
H           -4.16595841986553        2.86587513992044       -1.20735952598593
H           -3.99424957402907        3.40420010754096        0.48656703475907
H           -0.73555787314760       -3.64748173070228        1.69131043378922
H           -0.36911721447281       -4.04220263922635       -0.01279076577587
H           -1.92619361623396       -3.25542849444350        0.47159519148838
H            1.37100193830822       -2.34912440915301       -1.92884127313891
