25
 energy: 104.975320522899 xtb: 6.6.1 (8d0f1dd)
C            3.31870141091200        0.48719405064560        0.75658838445777
N            2.49054157642117       -0.45677501606881        0.04240370043130
C            2.99003997730547       -1.31155162091576       -0.89505482293437
N            2.38231634160282       -2.09027057113240       -1.68008150222847
C            0.31679790431987       -1.41409689801898        0.29881665065121
C            1.07594359200268       -0.29497351785971        0.17086284976442
C            0.56860924985138        0.93101188737515       -0.20688747221681
O            0.76999695035826        2.10183569393890       -0.29207556362337
N           -2.67598142048073        2.50868161722504       -0.23360787857230
C           -3.72224387244356        3.41017095483047       -0.45299192050763
C           -2.10080209277454        1.48561983176341       -0.09807286266152
O           -1.35053398542306        0.59158784147399        0.04398409637829
N           -0.21090864752001       -2.37566895205614        0.77836591862176
C           -0.88009243528932       -3.60162661052990        0.71021873907510
H            2.95013428520646        0.60108513434339        1.77793208769823
H            4.33874093083714        0.10902601264362        0.79142619160824
H            3.32369967813755        1.47313740966602        0.27831522210564
H            4.07523560430595       -1.33893342495918       -0.92117168563817
H           -3.26571631426407        4.35325827988992       -0.75858479124704
H           -4.38815236456270        3.05895387674937       -1.24329797729141
H           -4.28706568320242        3.56672020085457        0.46794870855039
H           -0.82359579008194       -4.02979966445568        1.71658140167471
H           -0.41738911367863       -4.28785408583311       -0.00319056529521
H           -1.93057031087796       -3.46027637571596        0.44864565759051
H            1.36450883431115       -2.02742726510847       -1.67003865419371
