25
 energy: 38.998367647910 xtb: 6.6.1 (8d0f1dd)
C            3.34530064556842        0.90881984277643        0.54598096843875
N            2.36648380407447        0.15497444586558       -0.22740876984460
C            2.57868131819995       -1.22844694734156       -0.44522773881597
N            1.34743238156377       -1.82445078045896       -0.58178234536650
C            0.39904152125596       -0.97637378621934       -0.29716471989052
C            0.90710024767168        0.32312523369576       -0.12411382017753
C            0.15176589480080        1.53106268747075       -0.16474409344578
O            0.54031819480387        2.67713455998191       -0.25090781597091
N           -1.35651608505280        1.36973191238828       -0.21286292828237
C           -2.48265371052093        2.39754520723029       -0.34740110035220
C           -1.78225342878804        0.13059344922697        0.10636035903236
O           -2.91061099480401       -0.23618563943243        0.44120249625040
N           -0.89135651386822       -1.17980465564701        0.03443463752553
C           -1.19045212593856       -2.52587903699774        0.43744329247436
H            3.37140534594389        0.66322420072821        1.61888175343170
H            4.34002059495210        0.65423262773717        0.15549346174117
H            3.12838456217520        1.94434963711365        0.44970015970911
H            3.48406412409157       -1.61669817588686       -0.87409769492482
H           -2.06293264795221        3.34636268963020       -0.65069774757673
H           -3.27658879243449        2.10957267040063       -1.06470023235218
H           -3.07717359771797        2.59406161797762        0.55948449508716
H           -0.78982051542932       -2.81098781445500        1.42731595933329
H           -0.73801523555984       -3.22866952657886       -0.29130897905505
H           -2.26282685656459       -2.72565951037711        0.38829641024169
H            1.21443173194643       -2.75132907399816       -0.96446000761461
