25
 energy: 91.051819841934 xtb: 6.6.1 (8d0f1dd)
C            3.34386566352841        0.60830798632266        0.76346145618274
N            2.43046755476944       -0.08716498436830       -0.09563839221948
C            2.65491987274976       -1.15022506073343       -0.85566480478610
N            1.54546613122751       -1.92832239359898       -0.93453521764998
C            0.51577344739984       -1.30504483994410       -0.10409547627711
C            1.01098028901841        0.03953503801626        0.11200828638132
C            0.50969935114736        1.25359511943212       -0.15860893559898
O            0.81312468463370        2.40544716341904       -0.26815469415967
N           -1.94874942181709        2.24750773332639       -0.33792792032999
C           -3.14521008878495        3.02072613858068       -0.46461071194323
C           -1.90663192798876        1.08545266669830       -0.02843840340629
O           -2.04469175040776       -0.01262106122625        0.30945056686698
N           -0.44230101540217       -1.76150009376387        0.54158213752174
C           -0.95278870634576       -3.05627774606225        0.66223917578258
H            3.02141228272352        0.45618288648901        1.80149120824500
H            4.33952659929777        0.19042810590687        0.64759000504776
H            3.38444759660599        1.66985360167979        0.57511704279946
H            3.56108106610233       -1.32659755483943       -1.39541101791777
H           -2.77390295940640        3.95559212722216       -0.84841948234224
H           -3.86037276997477        2.56691988425847       -1.15845160997573
H           -3.63700071710116        3.14031092551063        0.50343559841117
H           -0.79087483435239       -3.31460638749983        1.71415796360347
H           -0.42031154400716       -3.74724411456109        0.01969345013209
H           -2.03586272655630       -3.04182333466511        0.49152540331641
H            1.30933865930859       -2.51658774768929       -1.71214839569570
