25
 energy: 1.415128227326 xtb: 6.6.1 (8d0f1dd)
C            3.33645303687679        1.07672753994641        0.30635077507443
N            2.33267598910696        0.13763871896482       -0.12515524030230
C            2.57789673732762       -1.23725480916443       -0.24293915131932
N            1.35683107757395       -1.87038541032984       -0.34332195653001
C            0.37972354947631       -0.96252265748233       -0.16383042437106
C            0.91636090886008        0.31930505494768       -0.07654317205588
C            0.07745897042855        1.48008730202702       -0.11194916994983
O            0.43258034684529        2.65760837535464       -0.13708988605757
N           -1.34896435299177        1.16003175315331       -0.13132598318537
C           -2.36521666333237        2.23443023304226       -0.20120883256353
C           -1.84167654275115       -0.10061855781955        0.05781618768656
O           -3.02255263873732       -0.31261505684268        0.22391001037029
N           -0.94261620219691       -1.21643340719514        0.02924589163914
C           -1.34878974370112       -2.61037853221313        0.16675472428279
H            3.56107605781102        1.01757200959209        1.38616210757789
H            4.26319991876355        0.89204063095197       -0.24479943984706
H            2.99608581688110        2.08400355063636        0.08852081137537
H            3.52308670632168       -1.71545889697554       -0.41222454985400
H           -1.84399313862094        3.17743070146888       -0.35038305622842
H           -3.07310765485322        2.09094462896302       -1.02214561108353
H           -2.97280306308856        2.30708739264029        0.71071872399525
H           -0.99702440097983       -3.03727760113472        1.11615209418988
H           -0.93019987429726       -3.21733161494182       -0.64832722912441
H           -2.43318855524091       -2.68262942559720        0.11401300500817
H            1.22612157272406       -2.85913107301250       -0.49138359259969
