25
 energy: 90.425730879947 xtb: 6.6.1 (8d0f1dd)
C            3.33140419323070        0.55882497351327        0.82716730294611
N            2.43794576866756       -0.10700053200629       -0.07012695487420
C            2.67584161588109       -1.13061940763185       -0.87996393225402
N            1.59015348704882       -1.95406871337523       -0.95116796758077
C            0.54291787574529       -1.35459557407903       -0.09905918752406
C            1.01564214670935       -0.00080177527712        0.12946460849066
C            0.54211082605892        1.21173759207867       -0.16207791473017
O            0.80370097745738        2.37142982904760       -0.26357934067905
N           -2.04355984755241        2.30105674703389       -0.33519496048048
C           -3.22076697001498        3.09025634032587       -0.47191257487274
C           -1.96403390063149        1.14491206393159       -0.03798819113225
O           -1.93272975910331        0.04116244662743        0.29195895136688
N           -0.40006814749013       -1.82884873749839        0.55625027410602
C           -0.91941035095545       -3.12382733106994        0.67099143370663
H            2.94638770421019        0.42586474570618        1.84687808988279
H            4.31509913019129        0.10278838150240        0.75998717804255
H            3.42412212515970        1.61495568272790        0.63230778735761
H            3.58495186042570       -1.24590223933950       -1.42768179327722
H           -2.83799459208456        4.02613196738964       -0.84568667830901
H           -3.93096407272477        2.64326574209185       -1.17479803473107
H           -3.71726254788947        3.20696825919290        0.49481092541967
H           -0.77591648475425       -3.39241692354890        1.72167959255594
H           -0.38476480075095       -3.81943095485361        0.03463927568062
H           -2.00019037253950       -3.09819370876615        0.49007426492504
H            1.32927193018718       -2.43887055134080       -1.79521209475220
