25
 energy: -2.256819585365 xtb: 6.6.1 (8d0f1dd)
C            3.31625870562595        1.11028738590039        0.25490870136715
N            2.32177035463658        0.13664141391454       -0.09170112143876
C            2.58218218233388       -1.23576407160964       -0.16562898286020
N            1.36792091423335       -1.88218883061239       -0.25491429216123
C            0.38147154994775       -0.97686677072579       -0.12020913966623
C            0.91201798922576        0.30547801451801       -0.05054974792453
C            0.07166505556375        1.45727905324782       -0.08399000473703
O            0.42157792931033        2.63744435845189       -0.11336312681551
N           -1.34672523745153        1.12443169534189       -0.10673668935223
C           -2.34117448329056        2.21144743090789       -0.16073320836396
C           -1.85414098993495       -0.13417112334462        0.02496989753287
O           -3.04131107372888       -0.35476024511549        0.13445429437622
N           -0.94916973628532       -1.23293958054654        0.00732767666909
C           -1.37656856043208       -2.61980327716706        0.10580174735875
H            3.60584100170396        1.07190327242502        1.31755014082564
H            4.20961792854565        0.93993089180416       -0.35194250156885
H            2.91751840350231        2.09813116430365        0.04765424266262
H            3.53635914481357       -1.70304827690219       -0.30160893948330
H           -1.79865723689920        3.14900611005833       -0.26486194328091
H           -3.01938744089291        2.09735715715891       -1.00851137415566
H           -2.96159438623413        2.24824721887231        0.74068527855510
H           -1.03603479675686       -3.07782859649041        1.04366359503521
H           -0.97536746610012       -3.20849514822744       -0.72894186596464
H           -2.46291713937786       -2.65750902170240        0.05802016130196
H            1.25080755006494       -2.87658279672887       -0.36824119783239
