25
 energy: 92.846090158633 xtb: 6.6.1 (8d0f1dd)
C            3.37074417016285        0.76419122021994        0.65171443097716
N            2.42297065510430       -0.01547786465216       -0.09184605841054
C            2.63851659805947       -1.19234057315897       -0.70486298112140
N            1.45199644907236       -1.83579972534287       -0.88115958588686
C            0.45669831051583       -1.16134581767865       -0.16161705175595
C            1.01112666766958        0.17270265110647        0.04151482772434
C            0.53450688809563        1.39203531689635       -0.22099892590337
O            0.76865001989579        2.56021738227954       -0.24834104767432
N           -1.80224260354863        1.94056245748536       -0.29610841046535
C           -2.92956879454994        2.82784023049813       -0.44427384517539
C           -2.02750790929876        0.80944390453307        0.05525430597517
O           -2.40970547963831       -0.21305576136639        0.41098782438597
N           -0.56483076561560       -1.56957090349326        0.43536445073487
C           -1.04434707854208       -2.87268038772738        0.58538771620175
H            3.26816735055437        0.56089872104581        1.72803105031603
H            4.38093904565170        0.48574155365397        0.36101206423221
H            3.22457533718304        1.82648390241327        0.50840901645475
H            3.55990911751353       -1.51154487932014       -1.13401050751746
H           -2.48845711315864        3.73035986764932       -0.82285297199109
H           -3.66751999448894        2.41405193450065       -1.13537077641594
H           -3.42184635228239        2.97611444801738        0.51569735730360
H           -0.79323560622137       -3.10578332768671        1.62921120091804
H           -0.58230767612321       -3.58436408926410       -0.10150526328749
H           -2.13701503512705       -2.88040469297627        0.45725849804106
H            1.28514175869505       -2.69774649047318       -1.35891661782102
