25
 energy: 90.029087018471 xtb: 6.6.1 (8d0f1dd)
C            3.31937718109840        0.49729120520051        0.87807938560213
N            2.46642867431763       -0.17805884099971       -0.04268628419157
C            2.73081631855124       -1.14627452415126       -0.92094983947371
N            1.66036595857329       -2.00810095790523       -1.01643787973778
C            0.59438240956246       -1.45704427757497       -0.10724882157550
C            1.04947995191382       -0.09981337892573        0.14384305237763
C            0.60429137782904        1.10759368395610       -0.16955782776758
O            0.76177354771099        2.28303532614953       -0.25644659263604
N           -2.26079646677631        2.40400142671859       -0.31770939978317
C           -3.39382556085764        3.22423571112005       -0.47184868093520
C           -2.05614198400499        1.26972750020356       -0.04230445697715
O           -1.67901587787709        0.21067387443765        0.20003813145700
N           -0.31804995716075       -1.96646991259985        0.56578584930555
C           -0.86776815859659       -3.25401522557126        0.65466234678338
H            2.79646497069274        0.48034905618140        1.83787816090684
H            4.24452803168055       -0.06689363202876        0.94624849401088
H            3.53660917072488        1.52738876602342        0.60384546796680
H            3.69035830603323       -1.25399839669041       -1.38196026028184
H           -2.97964491041932        4.15733722477632       -0.82759938248994
H           -4.08899139686212        2.79450577738683       -1.19831919717366
H           -3.90152022085498        3.34093597188744        0.48840464495218
H           -0.74409217534670       -3.56277055405694        1.69624357276993
H           -0.37947941173004       -3.96399465746145       -0.00559892436859
H           -1.94813330309304       -3.19128932419710        0.48063965370277
H            1.35897964355397       -2.35045443612922       -1.93016787796329
