25
 energy: 5.822482875437 xtb: 6.6.1 (8d0f1dd)
C            3.34681304756458        1.04647732960506        0.35696459478916
N            2.34859987178379        0.13097184830378       -0.15799128885882
C            2.57719549320025       -1.24361597735355       -0.32444366430612
N            1.35021172989587       -1.86523285997281       -0.43637329525214
C            0.38094294701296       -0.95872792332958       -0.20997996091228
C            0.92841362999812        0.31643289322252       -0.09478637189865
C            0.09554077720240        1.48490135410688       -0.12562759222161
O            0.46544140095978        2.65635818971177       -0.12866765306897
N           -1.34253707980200        1.19184253419356       -0.14773219928383
C           -2.38139625184697        2.25761153431449       -0.23995526729239
C           -1.82632241995688       -0.06828609461533        0.08444731745702
O           -2.99958316823361       -0.26736021385605        0.30380708071093
N           -0.93538274273400       -1.20665861551343        0.03653861345332
C           -1.31985171329825       -2.60502822727875        0.22073421257207
H            3.51848445092653        0.96268881835240        1.44799650863461
H            4.30415919280170        0.86915223260998       -0.14771341442971
H            3.02126623286839        2.06360581743577        0.15356899886124
H            3.51330276144298       -1.73441063006634       -0.51636350303216
H           -1.88546273483142        3.21014715028758       -0.40529826191334
H           -3.08439785602547        2.08506070850146       -1.06358315414664
H           -2.99944050492618        2.34437398057910        0.66531157687989
H           -0.96031328408591       -2.99633005970235        1.18394122985923
H           -0.88108478568773       -3.23107681603810       -0.57060983964141
H           -2.40191763849503       -2.71451511558499        0.16187654150468
H            1.20738023569067       -2.84861564572629       -0.61585561110625
