  25
        -42.10849372
 C          3.1565790525        1.0681051254        0.0187162712
 N          2.2899902615        0.0636234398        0.0029133816
 C          2.5523510343       -1.2633007181       -0.0026326295
 N          1.3857644809       -1.9661111768       -0.0037055964
 C          0.3559907636       -1.0785514027        0.0008163059
 C          0.9027752511        0.1933340867       -0.0005367324
 C          0.0801931225        1.3810878136        0.0090692722
 O          0.4824536381        2.5202942172        0.0221535161
 N         -1.2772724186        1.0540204668       -0.0016766568
 C         -2.2314981124        2.1538059964        0.0014438784
 C         -1.8477959156       -0.2056975522        0.0017220163
 O         -3.0348296947       -0.3737955781        0.0002323670
 N         -0.9666948520       -1.3093154817        0.0067056509
 C         -1.5201900714       -2.6491046719        0.0366233328
 H          2.7755515278        2.0732401629        0.0364130123
 H          4.2090241994        0.8584595208        0.0170744884
 H          3.9553702993        4.0904470824       -1.3841535331
 H          3.5284462890       -1.7020409673       -0.0009464040
 H         -1.6727455706        3.0865722775        0.0056463342
 H         -2.8662434969        2.0953928090       -0.8826300754
 H         -2.8675052771        2.0889526192        0.8841418269
 H         -1.1800315612       -3.1812715315        0.9253132807
 H         -1.2405128715       -3.1996318760       -0.8619358220
 H         -2.6048442651       -2.5534060954        0.0712853645
 H          1.3222838223       -2.9732657006       -0.0016127417
