  72
        -99.37899727
 N         -2.7502550345        1.9972550351        3.0621165630
 C         -2.0943846424        2.0543800029        1.8294398262
 C         -3.0338569630        1.9155108617        0.5847931138
 C         -3.7671978866        0.5853347627        0.5552781293
 C         -4.4713612136        0.2099094010       -0.5909788332
 C         -5.1504554737       -0.9969244212       -0.6661583097
 O         -5.8507400626       -1.4329888951       -1.7325874747
 C         -5.9873983753       -0.6016544789       -2.8604324122
 C         -5.1329100129       -1.8819770054        0.4484591658
 O         -5.8037073279       -3.0368209957        0.2870411977
 C         -5.8572591051       -3.9539526355        1.3557203196
 C         -4.4493970573       -1.4916010987        1.5915867046
 C         -3.7808266156       -0.2793201908        1.6434904245
 C         -2.1022323521        2.0133722228       -0.6578610421
 C         -1.2536431691        0.7978845651       -0.8110050602
 C          0.0473155901        0.7697172290       -0.4646515894
 N          0.8636675158       -0.3126332933       -0.4910070746
 C          2.2637753798       -0.1868168597       -0.1950622383
 C          3.1375842100       -0.0777514317       -1.4641166120
 C          4.5851341139       -0.0051921556       -1.0780029010
 C          5.2525217424        1.2095336249       -1.0155272871
 C          6.5783688556        1.2733465394       -0.6174680757
 C          7.2663332874        0.1207105789       -0.2611397222
 O          8.5451719829        0.0625129039        0.1462424637
 C          9.2999750108        1.2496683654        0.2300523800
 C          6.5898090613       -1.1320282536       -0.3195757552
 O          7.3278446732       -2.1976171585        0.0410299210
 C          6.7499536266       -3.4813107070        0.0138766734
 C          5.2651093390       -1.1692419759       -0.7264577339
 C          0.3842685510       -1.5747811438       -0.9912783126
 C         -4.0910309557        3.0538237022        0.5841250309
 C         -5.0875847972        2.8345196092        1.7167873864
 C         -3.4929933761        4.4563892470        0.6771633519
 H         -4.4967790235        0.8737304149       -1.4397090245
 H         -6.4803077162        0.3413987717       -2.6053188436
 H         -6.6115094879       -1.1561406199       -3.5586056275
 H         -5.0193890339       -0.3948596312       -3.3279957515
 H         -6.3438527313       -3.5177647095        2.2329833019
 H         -6.4492023331       -4.7921962702        0.9935326087
 H         -4.8583662317       -4.3064600476        1.6306115251
 H         -4.4362430302       -2.1287644209        2.4607673779
 H         -3.2964183284        0.0073870658        2.5615865536
 H         -2.7165358128        2.1446693118       -1.5498048524
 H         -1.4678415938        2.8938298379       -0.5554583443
 H         -1.7511489049       -0.0872798704       -1.1725840951
 H         -1.4934151351        2.9589243996        1.7011668112
 H         -1.4202028655        1.1803934790        1.7583236228
 H          0.5207461293        1.6746453173       -0.1064592835
 H          2.5839825430       -1.0594620829        0.3825689854
 H          2.4223103364        0.7012833581        0.4204195878
 H          2.8469019601        0.8148388884       -2.0193442978
 H          2.9606987488       -0.9500649935       -2.0953446516
 H          4.7407113298        2.1196446562       -1.2881483069
 H          7.0718421116        2.2309489791       -0.5873745633
 H          8.8619093514        1.9527137790        0.9448316104
 H          9.3951736298        1.7326288784       -0.7469157704
 H         10.2844483455        0.9451947482        0.5801113820
 H          7.5330348784       -4.1613970391        0.3433047568
 H          5.8985335434       -3.5518981348        0.6981391688
 H          6.4326662172       -3.7567831023       -0.9965164696
 H          4.7474439121       -2.1139519450       -0.7842293674
 H          0.1381362362       -1.5151840985       -2.0553976595
 H         -0.5128500899       -1.8776476988       -0.4472086788
 H          1.1477491434       -2.3355605668       -0.8506200425
 H         -4.6274754780        2.9866425929       -0.3699086913
 H         -4.5199469659        2.5808409959        2.6243279228
 H         -5.7582580455        2.0058100307        1.5051948526
 H         -5.6731927439        3.7305491131        1.9022146063
 H         -3.0277850638        4.6225943600        1.6450737179
 H         -2.7603730794        4.6373735224       -0.1050429275
 H         -4.2865014674        5.1912314954        0.5635053499
 H         -2.5319223419        2.7507529231        3.6997216820
