  25
        -42.17002953
 C          2.8516574328        0.9593074623        0.9061194638
 N          2.1626725466       -0.0483211320        0.1031216766
 C          2.8138008559       -0.9447322422       -0.5058923663
 N          3.3156595557       -1.9305184401       -0.9213178091
 C          0.0374405654       -1.2117726487        0.2497738234
 C          0.7345087726       -0.0558008584        0.0831418225
 C          0.0382596856        1.2131385259       -0.1282332731
 O          0.5923740437        2.2727173425       -0.3224018928
 N         -1.3405287252        1.0924774950       -0.0893644463
 C         -2.1404719887        2.2953864814       -0.2665108237
 C         -2.0626495768       -0.0726650288        0.0819748793
 O         -3.2624583116       -0.0930390836        0.0863177926
 N         -1.3034254006       -1.2390558871        0.2565407230
 C         -2.0113245991       -2.4903238406        0.4378913480
 H          2.5772187269        0.8314098807        1.9524059013
 H          3.9268400860        0.8526289123        0.7928655043
 H          2.5393271944        1.9496620541        0.5699812149
 H          3.9154154817       -2.2417456118       -1.6654246380
 H         -1.4672784015        3.1451414116       -0.3460491113
 H         -2.7459849853        2.2078660782       -1.1683177780
 H         -2.8093941777        2.4153637269        0.5851508511
 H         -1.6856554582       -2.9784487128        1.3558120362
 H         -1.8334415600       -3.1531530047       -0.4091381299
 H         -3.0756823566       -2.2700625324        0.5017308126
 H          0.5415750518       -2.1581589174        0.3980531633
