25
 energy: -42.402055778469 xtb: 6.6.1 (8d0f1dd)
C            3.29865989194860        1.13240527215973        0.12000048917579
N            2.30266446132962        0.08707526797589        0.05899988949571
C            2.64382204659825       -1.19657772228893        0.09802469620606
N            1.54869142638317       -1.98840600205029        0.06993156809589
C            0.40216581170007       -1.13557870322673        0.02239080538516
C            0.94026433290000        0.18007728367052        0.03743750268242
C            0.10337838498605        1.38013230276935       -0.00431653952471
O            0.63983840627652        2.50539648603295        0.00836441657488
N           -1.22439386248035        1.11875296243442        0.03865777944605
C           -2.13844962513516        2.23089417662978        0.17007424464011
C           -2.98363585879011        0.30475429198123       -1.16516808324650
O           -3.88460785204034       -0.26634886696422       -0.75422102846792
N           -0.84653111195881       -1.40166814266396        0.02097094486797
C           -1.30719905891358       -2.74836403076232        0.03849220119200
H            3.81710477836095        1.11315590137095        1.08172129169007
H            4.04901163207623        0.96420794700955       -0.65481784585558
H            2.82462755292121        2.10230232691019       -0.01250574224096
H            3.65886851681628       -1.54692441332350        0.06116672040102
H           -1.86271695470372        3.05002937464914       -0.49188551177114
H           -3.17048403216438        1.91756944753499       -0.07306444839699
H           -2.21479559911790        2.50473308790392        1.22027776785924
H           -1.06751857416079       -3.21656740024954        0.99290082160233
H           -0.88033593935186       -3.34391298907081       -0.76687777121681
H           -2.38865600016975       -2.72373169150329       -0.09427557925542
H            1.61624610687900       -2.98765802383673       -0.02345913453632
