72
 energy: 69.248237111776 xtb: 6.6.1 (8d0f1dd)
N           -1.64884676943010        2.93375430237567        2.26577488027053
C           -1.64791707067253        2.21029303817754        1.24360116748949
C           -2.81157543827057        2.08290792732792        0.29768779726783
C           -3.37690160427698        0.67270926228125        0.37883288812039
C           -4.33863560473929        0.25565387786280       -0.54525314017099
C           -4.88606005368371       -1.01244846075946       -0.49409368967375
O           -5.83235605159001       -1.49365331936133       -1.34524713900414
C           -6.39110398771306       -0.62790073098726       -2.30068328694033
C           -4.46138949389112       -1.91818525323793        0.50567043134268
O           -5.04379844605524       -3.14662143429056        0.46621619249134
C           -4.70682975412109       -4.08477872288120        1.45652627375631
C           -3.51821949823007       -1.49976936398365        1.42549477605363
C           -2.98563630468890       -0.21617929070651        1.36266171777731
C           -2.24553308254841        2.34489284363075       -1.12546660210384
C           -1.42094191789909        1.19077516316977       -1.73252162386859
C           -0.08906548134312        1.02472196662036       -1.10548595205691
N            0.43927300121551       -0.12506619920378       -0.67470874160915
C            1.80724262139008       -0.19246128766085       -0.27341497621609
C            2.74556605088128       -0.77827116942835       -1.37701567034681
C            4.16088356608219       -0.66030659510732       -0.94694181117419
C            4.86006355659705        0.53163274598791       -1.16743301452102
C            6.14724998115314        0.68229572850748       -0.74099032797325
C            6.85027957478296       -0.34646674282444       -0.03175496087084
O            8.01734924965291       -0.18969257296770        0.35868334966921
C           11.33607401760281        1.88852637619640        0.72018933098211
C            6.08914541144762       -1.57957149722758        0.19151808664241
O            6.79572430684956       -2.54079410513537        0.84879955811439
C            6.19849263347171       -3.78052388202217        1.10469840113821
C            4.79335757141942       -1.69852005042765       -0.24806551346179
C           -0.27990245169851       -1.37027947041138       -0.77728009195669
C           -3.96076769119057        3.08775831405766        0.60050848877394
C           -4.61781511180065        2.80158231688067        1.95055540603058
C           -3.51495308571928        4.54786211457328        0.54980436127249
H           -4.66835347769466        0.94137975681566       -1.30844843282207
H           -6.86012268067704        0.24345604316397       -1.83181040956948
H           -7.15351799686088       -1.21374907175135       -2.81182825163933
H           -5.64705955264043       -0.29170911323478       -3.03136026486712
H           -4.95823752540229       -3.72437860149858        2.45935753793691
H           -5.30151637834643       -4.96891490417370        1.23295833105775
H           -3.64401730576184       -4.34729226553511        1.42192865310367
H           -3.18933002156072       -2.16083322755787        2.21126448076325
H           -2.27077401435628        0.08343553492568        2.11323001071811
H           -3.07912062193294        2.54822894285318       -1.79818535601663
H           -1.62369217442534        3.24034731788513       -1.09263238468626
H           -2.00326697905993        0.27293659839896       -1.68394789012996
H           -1.27314311666670        1.43434146069629       -2.79423494883991
H           -0.77817068949228        1.62475582174380        0.90012346263544
H            0.54678582895819        1.89308347146038       -1.04448916472864
H            1.89093438326046       -0.81464775509245        0.62038123417375
H            2.15727101376755        0.81076515905817       -0.03231033155803
H            2.57839310135096       -0.20123604509887       -2.28858625773218
H            2.46724683119861       -1.81699207597504       -1.55615374049265
H            4.37274940881500        1.33576261753745       -1.70466373382024
H            6.70237657587886        1.59061932157026       -0.92432023527847
H           10.99024887724336        2.71270056118198        1.29805260702399
H           11.57089297463674        2.00856615723186       -0.31035709227260
H           11.50792046782896        0.95128322833475        1.18958456359905
H            6.95054925308589       -4.37372554512776        1.62422582966543
H            5.31407713542824       -3.68287273412241        1.74541210078174
H            5.91585524672362       -4.29344866908848        0.17805706620229
H            4.24043915074720       -2.61457404210942       -0.08178904328355
H           -0.44323588201666       -1.66299537246688       -1.81857912596975
H           -1.25011900278970       -1.28677859325160       -0.28226600499177
H            0.29077811770158       -2.15477244656660       -0.28671708114279
H           -4.71952278559023        2.94114107963284       -0.17748731900950
H           -3.89921833823744        2.95150377611148        2.74926387143619
H           -4.98602714580522        1.77956341512159        1.99555622128652
H           -5.45729430812064        3.47734279059104        2.10004045734377
H           -2.74742708089155        4.73091872454510        1.29494424295566
H           -3.13191238591664        4.81823038073423       -0.43082012524578
H           -4.36605728195997        5.18993305457889        0.76644550572569
H           -0.78630737214113        2.94644289049042        2.80630686799307
