72
 energy: 20.402538793225 xtb: 6.6.1 (8d0f1dd)
N           -1.55281267788133        2.84216894826776        2.25249734670931
C           -1.58775607332798        2.16722867772931        1.19440469166338
C           -2.76872603905114        2.06922863223264        0.26549507866944
C           -3.33730550539021        0.65919671280456        0.34303101591774
C           -4.31694135511410        0.25004106710445       -0.56417991551924
C           -4.86509982733326       -1.01755910899674       -0.51439738287872
O           -5.82867350069055       -1.49247039772909       -1.35692982799904
C           -6.39394601495466       -0.61656601804769       -2.29721564892114
C           -4.42350234695577       -1.93236920211726        0.46618684464253
O           -5.01486543053466       -3.16218669184058        0.43067409577759
C           -4.67930698193651       -4.09456144528582        1.42504076186056
C           -3.45578493830112       -1.52691275476915        1.36511626082052
C           -2.92178420362458       -0.24436850869496        1.30367961424698
C           -2.21856647362098        2.31806524079361       -1.16548816672829
C           -1.31746599969478        1.19164463019231       -1.70517638966895
C           -0.03461875912099        1.10708352621069       -0.97363850630380
N            0.57463446934681       -0.09274262541469       -0.61168767638671
C            1.94971516215042       -0.09561910921213       -0.19795784018233
C            2.90079133167154       -0.62788192448037       -1.30212627965831
C            4.33778678549515       -0.51553036676277       -0.87654534444104
C            5.04262683793550        0.65406639979947       -1.08839303591739
C            6.36067965155708        0.79586527932247       -0.66478971211417
C            7.10420958366221       -0.16997964055427        0.00328019648089
O            8.47472526290621        0.03229351579509        0.45756038068361
C            9.57140136088032        1.08669720998110        0.42214620229822
C            6.34636225584440       -1.40922273630954        0.22084630513494
O            6.95109382177405       -2.43288756148123        0.89936843647820
C            6.28184680832482       -3.65243742155063        1.12555510489818
C            5.01570170145063       -1.54439710297063       -0.21397134537921
C           -0.12868701559978       -1.33983325876280       -0.67863201613664
C           -3.90413955340150        3.08028604186886        0.58793858063744
C           -4.53967052908880        2.78465793468225        1.94473703488829
C           -3.43694164887542        4.53411117930332        0.54924514482776
H           -4.66316063178114        0.94404520333171       -1.31217415712238
H           -6.85214339971524        0.25382655255689       -1.81541789556231
H           -7.16639747732141       -1.19378085323574       -2.80366985359248
H           -5.65842367937282       -0.27624379872312       -3.03458348452958
H           -4.90910440867046       -3.71769464078097        2.42768414530240
H           -5.29355585140496       -4.97031707063178        1.22021296981039
H           -3.62155527797398       -4.37858853309462        1.37738537733558
H           -3.11159436311785       -2.19726227795301        2.13705424018466
H           -2.19101692661408        0.04799489206727        2.04144724924029
H           -3.05504627342155        2.44418288919324       -1.85512368141870
H           -1.64446398548814        3.24572046233448       -1.16187724874247
H           -1.86840161668054        0.25312519199957       -1.65720284020180
H           -1.10091463573570        1.40250799621240       -2.76245646736092
H           -0.72045028103958        1.63808428619717        0.74366238138964
H            0.63054461088344        1.95820265201245       -1.02222052069760
H            2.05383403099490       -0.72809262805772        0.69274738145637
H            2.25343323220539        0.92419952814702        0.06739179045342
H            2.71904128772820       -0.03326953094613       -2.20167726593649
H            2.63076155819057       -1.66287418884671       -1.52194565667527
H            4.56226625422720        1.47600569553726       -1.60280398513466
H            6.85055737947099        1.73646775388490       -0.85949683138718
H            9.31210241185326        2.01311258640327        0.94984479783686
H            9.86666656842299        1.36048571935764       -0.59602414495033
H           10.44458984738248        0.64981294148872        0.92736146824992
H            7.01441570190820       -4.27575200568377        1.63973144783847
H            5.39939863253879       -3.54467703063822        1.76852431348377
H            5.98642180791320       -4.14508909373497        0.19301357476411
H            4.45806728243481       -2.46874683816640       -0.04379064166148
H           -0.29593167586537       -1.65335320145156       -1.71357454523190
H           -1.09698912031097       -1.26106474366249       -0.17586788515857
H            0.46658863943179       -2.10019550657134       -0.17334999414121
H           -4.67185017752035        2.95472552207438       -0.18403303483786
H           -3.80758371756148        2.92145340876282        2.73140185623922
H           -4.91639920099417        1.76530756625661        1.98513531157945
H           -5.36849210199965        3.46608111473688        2.12076620153028
H           -2.65262934517674        4.69242843525229        1.28099210436972
H           -3.07243921459308        4.81297441158783       -0.43575146431111
H           -4.27052785475226        5.18864212614649        0.79506415373612
H           -0.67383314908559        2.83334196970490        2.75767420665100
