72
 energy: 5.276925874065 xtb: 6.6.1 (8d0f1dd)
N           -1.53140210353378        2.81638827246195        2.24801083069306
C           -1.57434195944266        2.15748863122209        1.17982894793853
C           -2.76033775766079        2.06551909068941        0.25829712349615
C           -3.32943575478595        0.65538152834750        0.33653274412593
C           -4.31176948128876        0.24860346966474       -0.56862487130369
C           -4.85902823510660       -1.01911056334691       -0.52014526699962
O           -5.82504263359137       -1.49141722136009       -1.35993290378433
C           -6.39438610308063       -0.61393336603016       -2.29664387591372
C           -4.41470329861895       -1.93562748378863        0.45799044693839
O           -5.00700911464932       -3.16412268893969        0.42320478552816
C           -4.67422286549085       -4.09636978460578        1.41893978484577
C           -3.44440214971407       -1.53219186112713        1.35484113118368
C           -2.90999207404861       -0.24977414698472        1.29405692773110
C           -2.21014367205623        2.31208142257611       -1.17241140510506
C           -1.29661377404824        1.18817257754245       -1.69264726122717
C           -0.02235085814943        1.11869718830578       -0.93973868247400
N            0.59535319411264       -0.07738609361238       -0.59121866622922
C            1.96859572852130       -0.07534053332567       -0.18379429142271
C            2.91286066750390       -0.59905793655802       -1.29440822701629
C            4.34696702026524       -0.48763079273477       -0.86421393897642
C            5.05397621421739        0.68124760991403       -1.07313947086032
C            6.36977993627365        0.81659848898317       -0.64508021586291
C            7.08082320465885       -0.17212670654809        0.02308718657497
O            8.40962183581920       -0.05084377110685        0.48225417845892
C            9.40062223414308        1.02778099678160        0.38911042140871
C            6.33296880060197       -1.39608286376534        0.23886461024812
O            6.95633394643264       -2.41426762052527        0.90949325529342
C            6.29501522564204       -3.63787678808439        1.13405426932955
C            5.00691462828519       -1.52326303596253       -0.19622811254590
C           -0.10300458229379       -1.32780072199748       -0.65810334457195
C           -3.89182143236720        3.07896107857242        0.58605508548574
C           -4.52467167899804        2.78144619498259        1.94385322213836
C           -3.42226045579276        4.53212447305724        0.54912821465295
H           -4.66059320745434        0.94426465206670       -1.31362801679663
H           -6.85086615263509        0.25567783452145       -1.81194716105483
H           -7.16867291225244       -1.19077369172083       -2.80063670843606
H           -5.66141460790402       -0.27342813504890       -3.03639610364284
H           -4.90050795551497       -3.71667787227830        2.42127059064939
H           -5.29313133395462       -4.96932520093354        1.21656609146993
H           -3.61802715426296       -4.38504545795506        1.36975502506934
H           -3.09763870174367       -2.20427203763464        2.12407299511932
H           -2.17579864542523        0.04009507125640        2.02952150444611
H           -3.04479045557841        2.42464748377449       -1.86612893495900
H           -1.64562193543267        3.24568363980565       -1.17541556003356
H           -1.84380903860525        0.24707494869701       -1.64702689970422
H           -1.06738917134583        1.39415469014148       -2.74757726586655
H           -0.70739666542482        1.64122363442782        0.70801310443480
H            0.63731946492332        1.97161163213606       -0.99304488477470
H            2.07706775963204       -0.70809372604646        0.70527194306901
H            2.26904638956361        0.94410494764196        0.08232799222447
H            2.73308029108634        0.00104557058884       -2.19011259301917
H            2.64530613173196       -1.63307723755631       -1.52048150151244
H            4.57927828812442        1.50453494161304       -1.58929469517947
H            6.87508429840800        1.74876598977628       -0.83845050715308
H            9.09329475821155        1.94719354822528        0.90376674023384
H            9.64416977568071        1.28897337996100       -0.64691118630570
H           10.31168502455087        0.66076353135277        0.87354450846202
H            7.02934057553395       -4.26172920641743        1.64446149661888
H            5.41422497418368       -3.53262999642126        1.77902980119749
H            5.99873068747831       -4.12851989632472        0.20060808439510
H            4.44343194917447       -2.44178482382289       -0.03052803448876
H           -0.27114544704357       -1.64300598764344       -1.69291096790577
H           -1.07116347345900       -1.25494186145626       -0.15377649675972
H            0.49654337555153       -2.08508612593776       -0.15498545846344
H           -4.66188130268987        2.95567065642402       -0.18399080267779
H           -3.79068687151932        2.91504517309444        2.72988592206250
H           -4.90240182982091        1.76244852368187        1.98265884654888
H           -5.35284569846885        3.46314600008859        2.12221453103756
H           -2.63467283693321        4.68929328701004        1.27816979724795
H           -3.06112766302591        4.81371542706780       -0.43647610695016
H           -4.25451199004144        5.18672641809888        0.79925416252539
H           -0.64796194821474        2.81024260377225        2.74858877447126
