72
 energy: -5.204776191329 xtb: 6.6.1 (8d0f1dd)
N           -1.50072634538043        2.78227677583215        2.23808072231741
C           -1.55534605535726        2.15253883264639        1.15327709056792
C           -2.74935371203165        2.06101788715674        0.24689325873604
C           -3.31787362008866        0.64951801309486        0.32742978019745
C           -4.30469583794755        0.24645332754683       -0.57480756480858
C           -4.85103111453041       -1.02140972987829       -0.52806558260828
O           -5.82053258114712       -1.48972496868140       -1.36320421305951
C           -6.39537146714642       -0.61049873866954       -2.29545712730120
C           -4.40207807484734       -1.94064225766194        0.44653244253859
O           -4.99553759030522       -3.16655411604448        0.41333874805213
C           -4.66641538371314       -4.09906311843461        1.41050461526167
C           -3.42748674268726       -1.54059730282341        1.34002304416746
C           -2.89218877614876       -0.25830820441112        1.28008399897870
C           -2.19893555686168        2.30425331432797       -1.18299765747626
C           -1.27032500403222        1.18136005433062       -1.67284777799901
C           -0.00239021319616        1.12688656729447       -0.90264092795155
N            0.62465191597412       -0.05373548297475       -0.56741015467134
C            1.99415593622042       -0.04246362665811       -0.16403994578752
C            2.92925542416086       -0.55430490665145       -1.28267495100844
C            4.35607270894167       -0.44619795895781       -0.84442048708688
C            5.07035622859192        0.71927265515094       -1.04973934021507
C            6.38240434836118        0.83719952493591       -0.61394941237357
C            7.01798788442514       -0.19935113372774        0.04771275438930
O            8.30807505733537       -0.17361707170014        0.51582037792232
C            9.14971383599327        0.95076042888029        0.33714098876033
C            6.28540289667639       -1.39823367063516        0.26821873736810
O            6.95363123938651       -2.39079002231447        0.92426174530442
C            6.31060909792774       -3.62034484462588        1.14742477168067
C            4.97437328624495       -1.50071166847322       -0.17103187823010
C           -0.06407263758839       -1.30945742621389       -0.62893910294518
C           -3.87396039502961        3.07764143266619        0.58417772777714
C           -4.50242328071650        2.77673663864998        1.94347157579427
C           -3.40059566137609        4.52979634808231        0.54884988478960
H           -4.65820453288148        0.94471860303395       -1.31546534930583
H           -6.84979873387056        0.25785371160141       -1.80667990105488
H           -7.17205237622590       -1.18710716436152       -2.79571032712617
H           -5.66621028818810       -0.27000304382582       -3.03890623899713
H           -4.88763920390860       -3.71542027623293        2.41223797661651
H           -5.29219864938715       -4.96779002939481        1.21185583643179
H           -3.61266093706597       -4.39475668744229        1.35899160492907
H           -3.07692554698916       -2.21524146636133        2.10524386048651
H           -2.15323108183248        0.02723528661459        2.01293657893443
H           -3.03037043191048        2.39513161158065       -1.88273295028763
H           -1.64949162010247        3.24709361672389       -1.19664895070940
H           -1.81183977003193        0.23694452318420       -1.62890351066187
H           -1.02230719035429        1.38166213597588       -2.72293054371600
H           -0.68958007039180        1.64874286055932        0.65564711720075
H            0.64403576678808        1.98661930127870       -0.95285924182996
H            2.11003619468165       -0.67480875692004        0.72319736648201
H            2.29297559274300        0.97557937865371        0.10279680892855
H            2.75722411331748        0.05172653353291       -2.17448804111807
H            2.67082592589184       -1.58869785640597       -1.51464827607448
H            4.61038752550680        1.54777585996350       -1.56835994133592
H            6.91310449213503        1.75646681273180       -0.80223811092557
H            8.76158166291995        1.84503788647373        0.83804828522389
H            9.31189660406926        1.17930831070966       -0.72201446125754
H           10.10487051118743        0.68376654227615        0.78927099345439
H            7.04870385651052       -4.24314988634932        1.65148538033017
H            5.43204227488885       -3.51403908992110        1.79381591917420
H            6.01424761703214       -4.10294632417839        0.20974275497397
H            4.40858583522268       -2.40973652787982       -0.01167455394670
H           -0.23351519106898       -1.62796322424633       -1.66309304153330
H           -1.03149186664046       -1.24506924554419       -0.12158318046410
H            0.54275189282422       -2.06092693487813       -0.12871517858720
H           -4.64762443189121        2.95652822859302       -0.18275705584052
H           -3.76658950757759        2.90569959177108        2.72986293695371
H           -4.88166590618264        1.75831796164534        1.97962755792118
H           -5.32977779155459        3.45883316741128        2.12378034858865
H           -2.60850262931159        4.68776226456016        1.27413053862199
H           -3.04465997418098        4.81562938895002       -0.43776501297839
H           -4.23144542721328        5.18341620281535        0.80476808268798
H           -0.60934004918212        2.77865068124104        2.73027603455037
