72
 energy: 70.901533436773 xtb: 6.6.1 (8d0f1dd)
N           -1.65716440268331        2.94370382722679        2.26367603661689
C           -1.65101159659461        2.21529468814151        1.24654538683379
C           -2.81804791854888        2.08464756692379        0.30234666810497
C           -3.38203026683909        0.67289179664136        0.38235846529601
C           -4.34254163803758        0.25647487316580       -0.54363450513530
C           -4.89271670393288       -1.00935153814300       -0.48925602000764
O           -5.83291026755181       -1.49208547129270       -1.34426750309269
C           -6.39083121945797       -0.62685068329359       -2.30115522542889
C           -4.46821546971371       -1.91571375662364        0.51193927348268
O           -5.04753424135416       -3.14251574073760        0.47091419186073
C           -4.70861285454064       -4.08425688907228        1.45940378543663
C           -3.52057561331674       -1.49943509543482        1.42694156010259
C           -2.98823693958217       -0.21572325549408        1.36480352267054
C           -2.24645563656471        2.35126961200284       -1.11367847384699
C           -1.43660100244834        1.18938894166237       -1.72591723337156
C           -0.08543559314065        1.00817886016248       -1.14817048446205
N            0.43101679386221       -0.13587986916497       -0.68572991530475
C            1.81670328070641       -0.19795276492937       -0.27826285304408
C            2.77050125011387       -0.78605094773634       -1.36057549703282
C            4.18532127722224       -0.65388880794931       -0.92732021171761
C            4.86906914626902        0.53801858408767       -1.16856709596258
C            6.15286071503614        0.69650572827327       -0.75322536433380
C            6.88467038667519       -0.31010726428829       -0.03914838133071
O            8.05019282659465       -0.07431134813989        0.31949518627213
C           11.04507222614700        1.69859974246586        0.69172766249267
C            6.13826801632075       -1.55503038911278        0.19394720584067
O            6.83004784166733       -2.53107662477970        0.84904960101221
C            6.20620018112163       -3.76026981170295        1.09142522875232
C            4.83982995009353       -1.68272569828479       -0.24004767070111
C           -0.29610839748438       -1.38398786495387       -0.78752665234846
C           -3.96911477662285        3.08960024736340        0.60303952701911
C           -4.62328716154792        2.80078741720767        1.95227557991611
C           -3.51846589524242        4.54795638221663        0.54954377306726
H           -4.66818581786207        0.94255667809458       -1.30797630106233
H           -6.86201842618273        0.24401110061723       -1.83375180060322
H           -7.15131949878497       -1.21323480640950       -2.81395226073380
H           -5.64511412504460       -0.29169873144728       -3.03070079056118
H           -4.96280343321638       -3.72548041711991        2.46164226078694
H           -5.30265970331754       -4.96770879326105        1.23223054312813
H           -3.64518529485834       -4.34461120101241        1.42101506170992
H           -3.19352374319198       -2.15849423238366        2.21493494761839
H           -2.27981937441280        0.08503835590205        2.12128507461999
H           -3.08159028601593        2.56099274239680       -1.78422287703682
H           -1.62215211360343        3.24686521185340       -1.07695881752292
H           -2.01928395891806        0.27113262322641       -1.68513757830940
H           -1.28256487205203        1.45039002832600       -2.77681738660056
H           -0.78710781909073        1.61174945462010        0.91887321980949
H            0.54346093570237        1.88060736568578       -1.07934725162847
H            1.88761376325314       -0.82047928505820        0.61533323518103
H            2.16855100580855        0.80914003965412       -0.02099124045881
H            2.61814577184708       -0.22761358503745       -2.28589361335866
H            2.51194194675032       -1.83274964683731       -1.54011608712486
H            4.38641382830645        1.34135272157131       -1.70746630590877
H            6.68813159782218        1.61732391592789       -0.95260266503124
H           10.69930776787293        2.52321330150763        1.26194166302949
H           11.27542492060318        1.82649911890559       -0.33470495245785
H           11.41178909488177        0.83977050235471        1.19760799212522
H            6.94714285872201       -4.35966542977019        1.61521543410415
H            5.31763542611901       -3.65376909650614        1.72610620644212
H            5.92438393445809       -4.26680876518045        0.16051033509686
H            4.29791772099638       -2.60512511897054       -0.07389998193902
H           -0.45285837940079       -1.67694928244557       -1.82760248245468
H           -1.26544046404932       -1.29269809889090       -0.29398797967672
H            0.28188386024242       -2.16060330943313       -0.28954120209235
H           -4.72473175407890        2.93980299623372       -0.17698750258020
H           -3.91042767069380        2.95374977347122        2.75471101376406
H           -4.99712793746614        1.78069900371344        1.99809812130556
H           -5.45972094349086        3.47746301115436        2.10439181403321
H           -2.75415898494459        4.73215494308562        1.29698263116033
H           -3.13829331751454        4.82020189260510       -0.43148275815637
H           -4.36533303537630        5.19321944684333        0.76724602441208
H           -0.81249380617123        2.97645252033067        2.82760120407535
