72
 energy: 69.038462690245 xtb: 6.6.1 (8d0f1dd)
N           -1.64910297351291        2.92605186289977        2.26901192998394
C           -1.64775569120510        2.21067762739369        1.24201203972786
C           -2.81344317398022        2.08411387682133        0.29795032497083
C           -3.37874322202194        0.67358828376308        0.37988208407326
C           -4.34030021026880        0.25654417209185       -0.54457639783219
C           -4.88820415381467       -1.01116345556135       -0.49325626562852
O           -5.83262221761689       -1.49236264570050       -1.34497945090521
C           -6.39210152962142       -0.62716483825484       -2.30081317284767
C           -4.46208158281481       -1.91773169471533        0.50629103533852
O           -5.04337767188322       -3.14540673048891        0.46701340846297
C           -4.70679191104538       -4.08493117624916        1.45703897243573
C           -3.51766414582999       -1.49968290504331        1.42476527951147
C           -2.98575158790934       -0.21582479312555        1.36264601317780
C           -2.24836219235197        2.34646601102159       -1.12425830396362
C           -1.42661230834310        1.19035040650918       -1.72727198329760
C           -0.09647642315872        1.02547582355434       -1.09605332081291
N            0.43810323229122       -0.12864262212963       -0.68617638692745
C            1.80918354000983       -0.19080175225703       -0.27720856890119
C            2.74706195479150       -0.77397549066907       -1.37762793235080
C            4.16653647347876       -0.65826123801866       -0.94210677667507
C            4.87438370589001        0.52774381364783       -1.16002913379300
C            6.16339053456274        0.67595699084229       -0.73229340129833
C            6.86321852633210       -0.35627814571762       -0.02345953293726
O            8.02856773136780       -0.22924562938082        0.38020201018241
C           11.36292656438544        1.95731365345287        0.69902519619388
C            6.09065620244019       -1.58433902063881        0.19178723858233
O            6.78943369201047       -2.54699849320520        0.84949491906984
C            6.19240170509898       -3.78684943946631        1.10463709241184
C            4.79537104845086       -1.70134539451425       -0.24817193839286
C           -0.28416815112802       -1.37433246488857       -0.78128597511705
C           -3.96252117052763        3.08877334453567        0.60122246747663
C           -4.61732143590289        2.80092106049854        1.95130831381837
C           -3.51391547836256        4.54777651371451        0.54937977577000
H           -4.66941080256912        0.94237949338411       -1.30800227839763
H           -6.86165447659073        0.24390563593576       -1.83214343141762
H           -7.15395527800560       -1.21378768541937       -2.81168390820239
H           -5.64789411521695       -0.29174467093706       -3.03143107531679
H           -4.95910053586132       -3.72467160571761        2.45960725134042
H           -5.30202912998905       -4.96844025313322        1.23231138007972
H           -3.64402567878003       -4.34768316185222        1.42179263020187
H           -3.18864972695204       -2.16066353595838        2.21076063770855
H           -2.27117069643673        0.08304198235280        2.11381109702301
H           -3.08169451028582        2.55151245817508       -1.79713793240959
H           -1.62503859055532        3.24144899643077       -1.09211078869845
H           -2.00725731332465        0.27040214202785       -1.68570782043491
H           -1.26875361153331        1.43820254240175       -2.78531082013285
H           -0.77704546872563        1.62724485088988        0.89742482518860
H            0.54196977549915        1.89323394538546       -1.04499525269297
H            1.88902544754249       -0.81209019353489        0.61772503911524
H            2.15830333475059        0.81364920629912       -0.03188769042293
H            2.58160598879910       -0.20111823127746       -2.29243764230149
H            2.47494586687258       -1.81462785999399       -1.55952557146178
H            4.39151798086959        1.33480988589964       -1.69751156390316
H            6.71096717857286        1.58820221535156       -0.91789134286151
H           10.99326083549235        2.78163976778021        1.26899825968748
H           11.56731168739026        2.07945861335818       -0.34221867881261
H           11.46274114326606        0.99568592084452        1.15328452825180
H            6.94833590618930       -4.37416809650517        1.62502381048162
H            5.30784499912409       -3.69017066356648        1.74578848843780
H            5.91109070255910       -4.30114947031122        0.17800122876265
H            4.24047245871502       -2.61698540075375       -0.08652201451485
H           -0.44713187766219       -1.66938963620508       -1.82140354021030
H           -1.25330858809565       -1.28776112163691       -0.28476555466637
H            0.28988630517666       -2.15394522635916       -0.28671626426718
H           -4.72081883015162        2.94150698915965       -0.17702901434788
H           -3.89922952553445        2.95145570158826        2.75010501714669
H           -4.98760177427824        1.77959567287875        1.99653609534827
H           -5.45540582670227        3.47698923705601        2.10237698328972
H           -2.74662689942701        4.73048266593270        1.29466150630235
H           -3.13243375106653        4.81922864589712       -0.43153255554619
H           -4.36279904782800        5.19127673392235        0.76744811323980
H           -0.78826204219639        2.94591883643553        2.81069461802697
