72
 energy: 60.224891083313 xtb: 6.6.1 (8d0f1dd)
N           -1.58606264337344        2.87237815571957        2.26126593199403
C           -1.60972804676792        2.18906186521845        1.21283316158992
C           -2.78218460269546        2.07519925174104        0.27536720682338
C           -3.34869880502479        0.66441494799202        0.35286473204616
C           -4.32413429400592        0.25262927882981       -0.55835294763497
C           -4.87455036735667       -1.01442656697517       -0.50658679359476
O           -5.83222837329410       -1.49110367191441       -1.35112494631736
C           -6.39289151513530       -0.61927464297596       -2.29853113155740
C           -4.43657198470489       -1.92775664418714        0.47841034734679
O           -5.02582992584529       -3.15667018784891        0.44202603070920
C           -4.68715852875094       -4.09159811280868        1.43383947038155
C           -3.47211861432272       -1.51935111700726        1.38009004982335
C           -2.93852053864420       -0.23633846837330        1.31806024257887
C           -2.22808729182787        2.32701807427455       -1.15404554770541
C           -1.34926855878339        1.19293204476915       -1.71785223831494
C           -0.04262815931559        1.07108123368094       -1.03363583860438
N            0.53565103302951       -0.10535741856588       -0.64910355797683
C            1.92096264111098       -0.12438033996960       -0.22085499541499
C            2.86950754215048       -0.66928241629839       -1.31619660155084
C            4.31123620090062       -0.55596724021496       -0.89247017746206
C            5.01128068389905        0.61223989939419       -1.11206147891569
C            6.32611782570054        0.76088016034714       -0.69370694559370
C            7.09467964341923       -0.19220701656285       -0.01547099063307
O            8.39128218209178        0.05063680165499        0.39058735172252
C            9.94785879335857        1.25118059428307        0.48412116316794
C            6.31755113224194       -1.43682703449217        0.20328613791259
O            6.92916648379377       -2.46048590079765        0.88586204749524
C            6.26361766582820       -3.67648944160442        1.11470670935348
C            4.99519933170174       -1.58066094166827       -0.22951516920029
C           -0.17121479461827       -1.35521215665509       -0.70884543097685
C           -3.92240215039801        3.08333147733002        0.59095832773877
C           -4.56159076938775        2.78923512639911        1.94616082007251
C           -3.45841969333167        4.53776147047447        0.54921552862909
H           -4.66717856853915        0.94390690538374       -1.31047873634503
H           -6.85424230948419        0.25193164203023       -1.82133719130271
H           -7.16205941292236       -1.19775601976160       -2.80824159254186
H           -5.65360779375634       -0.28004291256562       -3.03260108168690
H           -4.92248592957374       -3.71950328029454        2.43666616027801
H           -5.29481526141566       -4.97081223257519        1.22453575558477
H           -3.62747115897363       -4.36894403466272        1.38803027198224
H           -3.13209253852986       -2.18673443219114        2.15622960891786
H           -2.21387051051291        0.05929315409200        2.06055053144234
H           -3.06523533467484        2.47361390393434       -1.83917643322347
H           -1.63980981586884        3.24519183277450       -1.14013361974562
H           -1.90702252268813        0.25914554678672       -1.67024611236613
H           -1.14804486665481        1.41225132629923       -2.77677439248206
H           -0.74054858096006        1.63653560806596        0.79871898509805
H            0.61672426548167        1.93220050467203       -1.05502830764077
H            2.01330942413224       -0.75660701896885        0.67102223479023
H            2.23034778957942        0.89438789658754        0.04545525413195
H            2.69299661819532       -0.08285085495502       -2.22265888111122
H            2.60159880511860       -1.70673442883551       -1.52959482553111
H            4.52806863913680        1.43230272477681       -1.62825408000762
H            6.80930478923494        1.70883695204670       -0.88854203210962
H            9.65996176834165        2.13356954316489        1.02617556675506
H           10.21757376715737        1.47288524518515       -0.52976834200286
H           10.68803365392621        0.65903090124744        1.00878060398310
H            6.99691085250725       -4.29514074652190        1.63337394803622
H            5.37879263932121       -3.56914364154005        1.75614109416494
H            5.97010982487770       -4.17507730024588        0.18397720443307
H            4.46271766333476       -2.51557360980034       -0.05349505243679
H           -0.33481476705717       -1.66671014063744       -1.74262865812555
H           -1.13870640265640       -1.27034096669740       -0.20727087494490
H            0.42036713223961       -2.11797265585868       -0.20097491108978
H           -4.68622129080127        2.95280405945418       -0.18365907692335
H           -3.83358910453547        2.93057927967818        2.73519851912196
H           -4.93713636906401        1.76961296777714        1.98837834901035
H           -5.39164646616565        3.46978746306830        2.11780989892426
H           -2.67929835012829        4.69968821554336        1.28508178902872
H           -3.08960591187376        4.81348399175157       -0.43478945778373
H           -4.29429658842926        5.19121151932502        0.78856276044554
H           -0.71268227538271        2.87234929866812        2.77284057121006
