72
 energy: 30.762796767800 xtb: 6.6.1 (8d0f1dd)
N           -1.56396490459344        2.85398132082957        2.25547518101885
C           -1.59481077514409        2.17285317753749        1.20142615029528
C           -2.77285118346245        2.07125205048814        0.26891701646618
C           -3.34104872110458        0.66115485499258        0.34611118013034
C           -4.31930619747095        0.25089630357880       -0.56223512117543
C           -4.86810016570497       -1.01656432064430       -0.51178604446648
O           -5.83063372821934       -1.49249020332192       -1.35534463637486
C           -6.39362842317484       -0.61749449730845       -2.29768562378299
C           -4.42774894967652       -1.93057570006838        0.47002767789927
O           -5.01879273711374       -3.16083509407627        0.43427176079385
C           -4.68195977349987       -4.09348244377225        1.42781217465431
C           -3.46123449863504       -1.52425566741071        1.36996855853458
C           -2.92748911367542       -0.24159814591878        1.30833603325714
C           -2.22191117184462        2.32096565473475       -1.16191308062273
C           -1.32755011726519        1.19270170059840       -1.71084108321751
C           -0.03935709430549        1.09931228785391       -0.99145419516071
N            0.56335068127201       -0.10049538487216       -0.62220427955499
C            1.93927070061023       -0.10620198360502       -0.20536090185381
C            2.89271725714985       -0.64236180763125       -1.30721247501013
C            4.33064951288851       -0.52954206564492       -0.88289642338144
C            5.03402480600249        0.64065436544818       -1.09602001347195
C            6.35262387844231        0.78647378671687       -0.67402210482695
C            7.10824338402185       -0.17002587976923       -0.00693031447875
O            8.50651560540413        0.07385160062348        0.44562295939064
C            9.66026586260182        1.12013220758549        0.43730545961584
C            6.34746567762785       -1.41607701742308        0.21468666585882
O            6.94624403489402       -2.44113945088926        0.89448747713115
C            6.27611461114065       -3.66021565742681        1.12185705616168
C            5.01500085869704       -1.55468429730357       -0.22081500452096
C           -0.14260376080368       -1.34578236223158       -0.68852260297866
C           -3.91008738003875        3.08110251483905        0.58888190639868
C           -4.54694667976986        2.78620175898014        1.94515931968202
C           -3.44409671530961        4.53527007931959        0.54929035804770
H           -4.66432173586771        0.94402070175041       -1.31171039647981
H           -6.85274994912631        0.25331525090923       -1.81743520521273
H           -7.16509689979802       -1.19491695708007       -2.80540024102104
H           -5.65676813869057       -0.27741559184281       -3.03386108182376
H           -4.91350763244558       -3.71817836814728        2.43063610564120
H           -5.29395720827389       -4.97054213250812        1.22165967033019
H           -3.62347393716568       -4.37529295941870        1.38088879642591
H           -3.11833318011223       -2.19375978538678        2.14325456085219
H           -2.19864555902343        0.05200355595349        2.04748507042130
H           -3.05865737914351        2.45451789637906       -1.85008122458720
H           -1.64243807870136        3.24522807939366       -1.15445176475690
H           -1.88034750936390        0.25537596730507       -1.66211287117261
H           -1.11734906383641        1.40614904749713       -2.76920560800712
H           -0.72714543750958        1.63681762452762        0.76188902939744
H            0.62696761889875        1.95076344604217       -1.03490355649593
H            2.04118010663354       -0.73895071751689        0.68573944674177
H            2.24498561146516        0.91362651842939        0.06011838898740
H            2.71011874513334       -0.04963845024968       -2.20800010051323
H            2.62073258888039       -1.67740370992066       -1.52519040245107
H            4.55106284795852        1.46112216232410       -1.61058759968614
H            6.83606872624232        1.73043105018212       -0.87081314131289
H            9.42467826176391        2.04817016287476        0.97148027563866
H            9.97931524443564        1.39733175545011       -0.57125964857206
H           10.51322772687679        0.64943451465668        0.95095192194336
H            7.00922280119815       -4.28178938938080        1.63740111620110
H            5.39340481105269       -3.55283587692522        1.76463395866523
H            5.98148795471290       -4.15490611174227        0.19022224438961
H            4.46420076383560       -2.48281333274834       -0.04755700124887
H           -0.30916318827422       -1.65848086398931       -1.72345470592761
H           -1.11090194754531       -1.26422189326936       -0.18636380372201
H            0.45086776185515       -2.10723537683069       -0.18200111423263
H           -4.67658754494503        2.95418855066924       -0.18402459322010
H           -3.81599273167722        2.92445330740182        2.73238624057210
H           -4.92322845212669        1.76669600395129        1.98616665776434
H           -5.37618457905330        3.46739426664575        2.11988416972279
H           -2.66136334999590        4.69438974636508        1.28228837657033
H           -3.07809976649126        4.81295249673605       -0.43540804502672
H           -4.27841478381858        5.18959848449118        0.79304720108237
H           -0.68655951557780        2.84589568276996        2.76200953958723
