72
 energy: 11.966835104763 xtb: 6.6.1 (8d0f1dd)
N           -1.54202326843948        2.82894495254913        2.25033704730609
C           -1.58095440746141        2.16146289578778        1.18754350792084
C           -2.76437046155633        2.06727302455239        0.26195201036868
C           -3.33341477025272        0.65733484053805        0.33973997025557
C           -4.31434524064873        0.24934482346296       -0.56646145061964
C           -4.86198527009028       -1.01832621806773       -0.51732741900789
O           -5.82678143206983       -1.49199695078844       -1.35855076719613
C           -6.39416255961119       -0.61520151522275       -2.29691603363513
C           -4.41905680091815       -1.93394816018878        0.46203319019493
O           -5.01088019261855       -3.16316966652328        0.42681762359165
C           -4.67675224468962       -4.09542676172983        1.42193022048078
C           -3.45010058993447       -1.52947699176021        1.35995682326686
C           -2.91595911183959       -0.24699285376937        1.29885891031990
C           -2.21438294797497        2.31496416443522       -1.16895466674334
C           -1.30702621848853        1.18996731443914       -1.69903926210783
C           -0.02884676906953        1.11381899025721       -0.95605852928438
N            0.58502449927919       -0.08534450083622       -0.60134584980829
C            1.95930502412749       -0.08554689351005       -0.19092170001131
C            2.90719966655193       -0.61336988245844       -1.29828567682235
C            4.34314319970676       -0.50164811302926       -0.87064345405467
C            5.04851886033969        0.66770619619383       -1.08102048597357
C            6.36572198381150        0.80704853084927       -0.65514201243180
C            7.09753133938582       -0.16830484387954        0.01262143800901
O            8.44310977009329       -0.00914624168694        0.47054141285449
C            9.48617315228129        1.05614426774215        0.40586901241893
C            6.34193697020718       -1.40118341147867        0.23054658877309
O            6.95473772567657       -2.42354726891232        0.90502795264124
C            6.28890510963110       -3.64513911747104        1.13002483218289
C            5.01398447438782       -1.53323507631188       -0.20499774900340
C           -0.11601551092214       -1.33391438881000       -0.66830268132496
C           -3.89785620001258        3.07956628088594        0.58695497092457
C           -4.53204662533271        2.78297302809777        1.94422486050820
C           -3.42951082117162        4.53308586717456        0.54924783628107
H           -4.66183447431967        0.94418958011068       -1.31297363610888
H           -6.85146458009447        0.25480001002632       -1.81362288485920
H           -7.16757323134931       -1.19218146575444       -2.80214078430723
H           -5.65993568243498       -0.27474389524474       -3.03547500309977
H           -4.90478832601799       -3.71709193557497        2.42441373921145
H           -5.29336762220173       -4.96976617352663        1.21833117414954
H           -3.61977047237996       -4.38180695273716        1.37352923773126
H           -3.10449177360295       -2.20073829184823        2.13045187012684
H           -2.18330688911553        0.04411572189006        2.03530174697808
H           -3.05001327182003        2.43447977761234       -1.86057093975586
H           -1.64482453828298        3.24544519719013       -1.16869352130524
H           -1.85587710404473        0.24995085156314       -1.65236032984817
H           -1.08444709552506        1.39849858623363       -2.75515512047833
H           -0.71366242643891        1.63947328979977        0.72559216664156
H            0.63431469561139        1.96522367566753       -1.00720880276988
H            2.06556915847857       -0.71827746127457        0.69889857880678
H            2.26099955675306        0.93425180807799        0.07494627327345
H            2.72617471103681       -0.01524184910144       -2.19541534994026
H            2.63776014262494       -1.64754832164650       -1.52208058295982
H            4.57018697316287        1.49019304712970       -1.59618554159282
H            6.86197876491438        1.74413636248434       -0.84971983450470
H            9.20363779736609        1.98024604106964        0.92663235765363
H            9.75529187611136        1.32459930625499       -0.62154712382535
H           10.37865445512609        0.65330828728039        0.90082670031746
H            7.02195472017105       -4.26917541703760        1.64246187963107
H            5.40725336324776       -3.53887034991564        1.77395944166325
H            5.99293981201628       -4.13705294178695        0.19722085549290
H            4.45318015667481       -2.45483572279495       -0.03669379792680
H           -0.28387676762839       -1.64813374056462       -1.70315511019977
H           -1.08412745594565       -1.25803735795455       -0.16454011813515
H            0.48153129177643       -2.09271461076645       -0.16420178942741
H           -4.66678103912262        2.95524004311250       -0.18402078798760
H           -3.79896514825260        2.91816579918415        2.73045870410542
H           -4.90926772389495        1.76379071944211        1.98379580593138
H           -5.36053739980945        3.46450388600802        2.12156521780903
H           -2.64356087849110        4.69076619539492        1.27960878246888
H           -3.06673578412958        4.81331873559212       -0.43605077818366
H           -4.26240409395861        5.18769305510779        0.79728693357633
H           -0.66091884561009        2.82169890362738        2.75308153265542
