72
 energy: 0.214290310972 xtb: 6.6.1 (8d0f1dd)
N           -1.52111405560072        2.80450334871291        2.24546840787834
C           -1.56801457241584        2.15522475216306        1.17156314711688
C           -2.75656311686605        2.06397412652377        0.25462059636556
C           -3.32559220725444        0.65348588413700        0.33354981105100
C           -4.30933466173525        0.24785651329104       -0.57062853334226
C           -4.85625655055998       -1.01990521495604       -0.52279067839086
O           -5.82340935417963       -1.49090118463670       -1.36110559929901
C           -6.39463464417164       -0.61280614533373       -2.29629587050586
C           -4.41045636297822       -1.93730705110846        0.45415396360470
O           -5.00310556105273       -3.16505334979389        0.41981373647188
C           -4.67161698002326       -4.09729756109175        1.41613609871312
C           -3.43876960359358       -1.53489786555991        1.34988535267157
C           -2.90410455141774       -0.25251021496494        1.28944846937157
C           -2.20618871630338        2.30918665609953       -1.17586477837947
C           -1.28673557356567        1.18624580498484       -1.68610342222522
C           -0.01543055881525        1.12302816696119       -0.92535362077682
N            0.60560693929274       -0.06923703005573       -0.58217225686857
C            1.97781709252507       -0.06476294856191       -0.17694965650006
C            2.91857918087773       -0.58406734414813       -1.29075785255001
C            4.35036439781386       -0.47350226242342       -0.85802019547328
C            5.05956919964378        0.69449846283617       -1.06571916090419
C            6.37387551893183        0.82445305817366       -0.63532214051548
C            7.06037534433698       -0.18001818166324        0.03101386115600
O            8.37505101399740       -0.09209268095493        0.49315412372143
C            9.31561735908215        1.00109912692102        0.37200447135473
C            6.31875367837387       -1.39438674253926        0.24878798835699
O            6.95595419745409       -2.40582080697796        0.91438780202077
C            6.30053213949385       -3.63157788625951        1.13844360662160
C            4.99668531036616       -1.51501035059050       -0.18787115639300
C           -0.08983686443615       -1.32168402454035       -0.64802303930973
C           -3.88593578370854        3.07851309183957        0.58520283464885
C           -4.51737828540240        2.77997727302661        1.94350869848349
C           -3.41510398334772        4.53128058641990        0.54897266291348
H           -4.65952106776719        0.94424022916744       -1.31423535107631
H           -6.85039346706755        0.25637486788052       -1.81021218023446
H           -7.16972676143937       -1.18955340897764       -2.79908221322043
H           -5.66291350408415       -0.27221690471528       -3.03722156957953
H           -4.89625111485925       -3.71619572268293        2.41825255869659
H           -5.29280605561302       -4.96886425877504        1.21498343557085
H           -3.61620897319916       -4.38826443929812        1.36622327703395
H           -3.09075025315020       -2.20783748229756        2.11777494251593
H           -2.16834575973842        0.03603647375137        2.02396564228626
H           -3.03986838603032        2.41462073319001       -1.87156811019095
H           -1.64683144598756        3.24595488066203       -1.18237918880623
H           -1.83230347201863        0.24408586602908       -1.64125714740471
H           -1.05111005786464        1.38988191926323       -2.73966692597992
H           -0.70136059046036        1.64393516017049        0.69048072034285
H            0.63985206394439        1.97816536887309       -0.97953015266185
H            2.08862518086954       -0.69757836147414        0.71133928299440
H            2.27740634598999        0.95428679038528        0.08944098450623
H            2.74070699703335        0.01811177407184       -2.18499166074207
H            2.65383347359967       -1.61814763432291       -1.51882613497892
H            4.58963661484064        1.51943305470736       -1.58254827624901
H            6.88877778161835        1.75164823302912       -0.82648315303991
H            8.98269373261517        1.91384730915148        0.88169304441492
H            9.53339433079209        1.25330208885464       -0.67202206657222
H           10.24259215251179        0.66785852392142        0.84602278881818
H            7.03632941150640       -4.25502014308123        1.64668060095268
H            5.42056650024665       -3.52640113367933        1.78408501479531
H            6.00419244077828       -4.11989447084372        0.20374677817301
H            4.43116664774461       -2.43022778263134       -0.02461553425999
H           -0.25847634875401       -1.63801297637713       -1.68266629793006
H           -1.05793856797549       -1.25159249731714       -0.14297192311719
H            0.51186730199086       -2.07740660479286       -0.14581290564429
H           -4.65714954365242        2.95612504823910       -0.18384434797388
H           -3.78257857607344        2.91201939300164        2.72936073349207
H           -4.89562198746411        1.76117227168815        1.98152069254006
H           -5.34519267605529        3.46185216900793        2.12285267646180
H           -2.62598444932184        4.68855803752973        1.27672127611036
H           -3.05565029772936        4.81417726424005       -0.43696594615272
H           -4.24679337772919        5.18572341349334        0.80109855879462
H           -0.63526222395651        2.79922510193034        2.74377717072139
