72
 energy: 72.001860290716 xtb: 6.6.1 (8d0f1dd)
N           -1.64712158464805        2.93678670424475        2.25634955156722
C           -1.65436835794861        2.20735475956208        1.24016567739296
C           -2.81423440421822        2.08130077561952        0.29536109234870
C           -3.37706727191145        0.67119388690197        0.37541031440404
C           -4.34117941631883        0.25693786645226       -0.54710171681757
C           -4.89279227699078       -1.00892983407076       -0.49275393271204
O           -5.83245435733104       -1.49015613176933       -1.34553481204097
C           -6.39114234539941       -0.62444753187881       -2.30211215985325
C           -4.46375150044150       -1.91745132769691        0.50496577223285
O           -5.04379410910250       -3.14339057300543        0.46597393675668
C           -4.70411200004050       -4.08465783275525        1.45382676333428
C           -3.51070196380726       -1.50349593607207        1.41623628890170
C           -2.97835598047820       -0.21982761940027        1.35388917271688
C           -2.24472030054477        2.34684825404766       -1.12246069023644
C           -1.42066571741898        1.18986562635121       -1.72620996998208
C           -0.07107938398947        1.00875254701191       -1.14213764616894
N            0.44956138828627       -0.12614962635056       -0.68984249460191
C            1.83391822210794       -0.18203751874845       -0.26683025250491
C            2.79384894199124       -0.76403751158623       -1.35232473605962
C            4.21268376955476       -0.63891878231207       -0.92001677015742
C            4.90408146799141        0.54557665846251       -1.16110597563915
C            6.18931203125536        0.71041839676405       -0.75058643458537
C            6.93622524273581       -0.28328487621052       -0.03646051751151
O            8.10826791469836       -0.01487724832074        0.30717398227502
C           10.84066100977104        1.58779274977459        0.66384338420231
C            6.17774161402524       -1.53076585753081        0.19513076341651
O            6.85613207721971       -2.51806355132858        0.85234937954742
C            6.21948479501888       -3.74104714279849        1.09134879080001
C            4.87447979907517       -1.66391004822636       -0.23553041988991
C           -0.26950383887150       -1.37795163840046       -0.77355975002493
C           -3.96067075781382        3.08946627434484        0.59963674768218
C           -4.61040591906217        2.79892188420625        1.95007390560720
C           -3.50592884822652        4.54598261185291        0.54945067897323
H           -4.67096162079640        0.94403682225920       -1.30818748670178
H           -6.85977484565498        0.24632658073166       -1.83208191562897
H           -7.15301178493361       -1.20878985687938       -2.81481344765058
H           -5.64591345952084       -0.28812945693336       -3.03105464051434
H           -4.95365083148160       -3.72368895409492        2.45648447138615
H           -5.29981289769139       -4.96866950341905        1.23256720231080
H           -3.64126580873717       -4.34889730309919        1.41350239966870
H           -3.17994490402772       -2.16432452002102        2.20122956830254
H           -2.26552892365237        0.08122306946774        2.10634314740851
H           -3.07986254171290        2.54180691549269       -1.79730439100346
H           -1.62710838118546        3.24523572643273       -1.08831564855159
H           -1.99640350886692        0.26818146904832       -1.68488872515299
H           -1.26542027476887        1.44057545020477       -2.78474319113364
H           -0.77986935528688        1.61664732356548        0.91600852715892
H            0.56462973385240        1.87870106622195       -1.08379298390741
H            1.91229672496433       -0.81026240888965        0.62454104940492
H            2.17890377835781        0.82674444687682       -0.00627909948648
H            2.63228716346223       -0.19804621082934       -2.27207381047511
H            2.53561926368229       -1.81043067159560       -1.53819673731488
H            4.42414225235972        1.34610510015644       -1.70255114015409
H            6.70971459686277        1.64144695969339       -0.95280249792908
H           10.48519040153060        2.41348507110909        1.21457428192076
H           11.04918249001232        1.73389801696219       -0.35794723923650
H           11.26668262239662        0.75523781689217        1.17556252832076
H            6.95703246571205       -4.34414144759435        1.61769273851781
H            5.33081690126504       -3.63142018517483        1.72564997291911
H            5.93474049669967       -4.24569992629804        0.16102324343452
H            4.33384030446176       -2.58868219502346       -0.06858815685333
H           -0.42661316810704       -1.67971987277012       -1.80952763929338
H           -1.23720239071551       -1.28820416937502       -0.27704711878089
H            0.31234574909310       -2.15054220264339       -0.26951040611890
H           -4.71767643485564        2.94463213486905       -0.17936036481181
H           -3.89316794371376        2.94946415503677        2.74802313999250
H           -4.98392763670322        1.77895102181398        1.99510138367375
H           -5.44504025172129        3.47631295728120        2.10846105895550
H           -2.73879360883828        4.72302230650368        1.29480391866483
H           -3.12791525541136        4.81756038513822       -0.43195279978369
H           -4.34991624428506        5.19352846193805        0.77208797893502
H           -0.79855677123435        2.95844371283314        2.81575231389136
