72
 energy: 42.180810878781 xtb: 6.6.1 (8d0f1dd)
N           -1.57524686097673        2.86620459447722        2.25839401986723
C           -1.60226573781786        2.17901996171936        1.20806195496015
C           -2.77742286060264        2.07333130524242        0.27230907478431
C           -3.34496369766976        0.66306230250219        0.34941848391952
C           -4.32188736399890        0.25178492389869       -0.55999277220437
C           -4.87119242871791       -1.01552171755709       -0.50881540691219
O           -5.83244617591645       -1.49217336489301       -1.35312223456753
C           -6.39326413177311       -0.61856894142619       -2.29796563534221
C           -4.43204388683770       -1.92886108643825        0.47416765536024
O           -5.02268147121383       -3.15949817449795        0.43819157683364
C           -4.68452081109915       -4.09252014786697        1.43080372587731
C           -3.46672143856300       -1.52165405605062        1.37505995068755
C           -2.93320789479611       -0.23887832325751        1.31314623222873
C           -2.22578419321907        2.32380915914804       -1.15844745354438
C           -1.33782668407379        1.19379748657349       -1.71624903968653
C           -0.04388659142468        1.09121161165577       -1.00937097662530
N            0.55232153604833       -0.10659532733428       -0.63253639454879
C            1.92898083242134       -0.11608203220048       -0.21283942376994
C            2.88477165012535       -0.65670141999174       -1.31168195755043
C            4.32337818277411       -0.54340668843780       -0.88840382721171
C            5.02610794069687        0.62681286728607       -1.10301094138484
C            6.34479963632705        0.77532837022685       -0.68212552088763
C            7.10873965119323       -0.17454609863278       -0.01282797783268
O            8.51268222309496        0.09506749031514        0.42661898129168
C            9.75059853062696        1.15191681301493        0.45416008364528
C            6.34323427894836       -1.42249107449628        0.21039227244148
O            6.94038104768563       -2.44884875936832        0.88978809029000
C            6.26961902012942       -3.66716685573580        1.11762303296405
C            5.01215935113700       -1.56566103879908       -0.22618695201265
C           -0.15594106839778       -1.35086784000418       -0.69871625905338
C           -3.91638610777373        3.08197957702553        0.58993565644654
C           -4.55450222063250        2.78775272165233        1.94572635726738
C           -3.45157906770206        4.53646033650433        0.54936791315831
H           -4.66571196048710        0.94394408252637       -1.31101150101580
H           -6.85346330485901        0.25261143789712       -1.81937534748403
H           -7.16364644827154       -1.19637255251890       -2.80693423433809
H           -5.65504574898578       -0.27880944417227       -3.03295047407051
H           -4.91785620461524       -3.71886911319765        2.43380104331009
H           -5.29419119355494       -4.97093016816586        1.22332455081093
H           -3.62531167890463       -4.37201170253010        1.38458750507656
H           -3.12514521772202       -2.19024614049490        2.14973256689008
H           -2.20625267651159        0.05595117989295        2.05365592638740
H           -3.06287851551826        2.46453964710836       -1.84504569640839
H           -1.64139919730273        3.24488913000564       -1.14728378283131
H           -1.89264617668763        0.25785761458726       -1.66664706807602
H           -1.13431673293122        1.40982959147311       -2.77586725968425
H           -0.73409529834640        1.63642056905455        0.77970342056961
H            0.62307064956154        1.94297831845177       -1.04862799388720
H            2.02855771236117       -0.74856863056292        0.67898391232611
H            2.23661113443780        0.90366819935210        0.05231943694292
H            2.70189044883745       -0.06706699683930       -2.21453731867404
H            2.61182021142449       -1.69226675489017       -1.52660082646527
H            4.54150534258372        1.44626721141092       -1.61780402710019
H            6.82324776193567        1.72235713933244       -0.88051993683757
H            9.53092062468636        2.07748065319441        0.99409562848248
H           10.08578110250222        1.42683422490011       -0.54625389235337
H           10.58306146833707        0.65040169829922        0.97496970494637
H            7.00277531235882       -4.28741162925355        1.63462950837560
H            5.38631594362391       -3.55943270923326        1.75971352132403
H            5.97583069427280       -4.16338396349314        0.18647852451919
H            4.46958448453186       -2.49754424531419       -0.05068645474596
H           -0.32174713576378       -1.66308907081677       -1.73367159438842
H           -1.12452665686969       -1.26736810592999       -0.19748973520686
H            0.43532851761432       -2.11398882400838       -0.19120254708070
H           -4.68166136050645        2.95356383762010       -0.18393851654420
H           -3.82459324799877        2.92742263650019        2.73352895663935
H           -4.93025570348137        1.76806726915797        1.98735160899385
H           -5.38419694895568        3.46869039409769        2.11911679861018
H           -2.67041678184052        4.69644343428857        1.28367863490830
H           -3.08400331223895        4.81290744298402       -0.43503103332012
H           -4.28667206706255        5.19054827262002        0.79096121774140
H           -0.69926846352575        2.85867485980381        2.76688264103911
