72
 energy: 71.497179815299 xtb: 6.6.1 (8d0f1dd)
N           -1.64758202688349        2.94304677800544        2.25939454394862
C           -1.65180458518315        2.21079427459244        1.24469180775454
C           -2.81640392949673        2.08292436597610        0.29931289374320
C           -3.37989479091255        0.67245035721752        0.37933459997246
C           -4.34255412047398        0.25739806637498       -0.54484838889459
C           -4.89320979486762       -1.00846318842752       -0.49026395211309
O           -5.83241863205771       -1.49122857274430       -1.34481176090817
C           -6.39080267307904       -0.62584695636717       -2.30165938496569
C           -4.46641588997037       -1.91632735929968        0.50914497975360
O           -5.04497904016368       -3.14192702022432        0.46863167159174
C           -4.70623772783584       -4.08420315174076        1.45643944334943
C           -3.51559699403078       -1.50125112116457        1.42199114663628
C           -2.98349975294327       -0.21751678235774        1.35958658635264
C           -2.24620010938119        2.34981986687854       -1.11707423522194
C           -1.42995005093212        1.19055551749518       -1.72620719075363
C           -0.07662446552153        1.00888323154868       -1.15012897312537
N            0.43936265428497       -0.12993481693259       -0.68597048479594
C            1.82538150474627       -0.18985267299137       -0.27265955248750
C            2.78244372820816       -0.77622977917129       -1.35609835349868
C            4.19881300332866       -0.64676563539055       -0.92323828695909
C            4.88582032702080        0.54151529041687       -1.16561455258765
C            6.16972509385397        0.70365511975219       -0.75359116924962
C            6.90825104618827       -0.29656054840313       -0.03911938419309
O            8.07500338756554       -0.03863855235483        0.30889743509297
C           10.94430733273618        1.63704556494843        0.68024558186057
C            6.15795921825752       -1.54323970464669        0.19437745470120
O            6.84316539892830       -2.52486265823335        0.85063640657551
C            6.21203847894635       -3.75059526670142        1.09048448210925
C            4.85713567921962       -1.67359095269357       -0.23778891694327
C           -0.28367138736052       -1.38140167793207       -0.78045174881939
C           -3.96532231846625        3.09008732530587        0.60142251810463
C           -4.61696789793765        2.80002194935399        1.95114424908190
C           -3.51231834057285        4.54722319683501        0.54951352827344
H           -4.66954840533509        0.94356445859942       -1.30813255208296
H           -6.86061256403825        0.24508715094767       -1.83300734843883
H           -7.15191262279907       -1.21102833848178       -2.81453580370640
H           -5.64536337606803       -0.28981446243685       -3.03089221294833
H           -4.95829745576214       -3.72435942666825        2.45882759069765
H           -5.30138691450912       -4.96763559595733        1.23210409079549
H           -3.64317526356418       -4.34685867332447        1.41723521800558
H           -3.18639446599203       -2.16125136426568        2.20828941129439
H           -2.27243145185498        0.08356883645524        2.11360262812986
H           -3.08132714099046        2.55130456873122       -1.79074553746906
H           -1.62667154700381        3.24786770540871       -1.08154451817026
H           -2.00795235345295        0.26987518317379       -1.68460447359050
H           -1.27894612422246        1.44572560141818       -2.78158971876336
H           -0.78431904557821        1.60864152183559        0.92385588814784
H            0.55225112434704        1.88181100581579       -1.08433315613303
H            1.90067139289410       -0.81574314645116        0.61923973343688
H            2.17465734317916        0.81775836850417       -0.01368858259222
H            2.62626338191591       -0.21441926960549       -2.27875065396327
H            2.52591273441448       -1.82387853128923       -1.53735078389546
H            4.40479169158465        1.34252735160266       -1.70641629604127
H            6.69792907142218        1.62957712598300       -0.95350642454357
H           10.59435759253602        2.46253946786682        1.24081661347763
H           11.16326095150365        1.77569016835509       -0.34418259100814
H           11.34343438503489        0.79326174390442        1.18889739869902
H            6.95064013761138       -4.35144115140554        1.61614184725293
H            5.32313483591009       -3.64235614209241        1.72444479323391
H            5.92936549962126       -4.25601377272596        0.15939450491191
H            4.31574372890820       -2.59708087540887       -0.07130056045733
H           -0.44010198686012       -1.67922681967610       -1.81855882687711
H           -1.25187875867710       -1.29018040836644       -0.28577969672799
H            0.29666499529711       -2.15597389441275       -0.27946585358618
H           -4.72134947725044        2.94259925666769       -0.17838634657440
H           -3.90175317582659        2.95171997636039        2.75118353459020
H           -4.99062623764994        1.77999117861857        1.99651829810527
H           -5.45243547535789        3.47706820253462        2.10649966807734
H           -2.74649887647363        4.72748363759550        1.29582176051184
H           -3.13332144657762        4.81869639109363       -0.43179973593299
H           -4.35773020735561        5.19357749652563        0.76974000336571
H           -0.80475058396538        2.96980171434898        2.82693198821530
