  72
        -99.35391802
 N         -2.0470045738        2.9028924348        2.7048827204
 C         -1.9601913566        2.1852138252        1.6822491055
 C         -3.0480793958        2.0682312810        0.6472414644
 C         -3.5457751327        0.6309025586        0.5837138100
 C         -4.4361431496        0.2529203000       -0.4245531765
 C         -4.9102955617       -1.0428557926       -0.5241975592
 O         -5.7844432160       -1.4821952672       -1.4610880290
 C         -6.4308989958       -0.5410214247       -2.2845984882
 C         -4.4670207689       -2.0221707901        0.4006413738
 O         -4.9559319748       -3.2689397292        0.2094317448
 C         -4.6441949924       -4.2719209966        1.1468540128
 C         -3.5951532373       -1.6397005932        1.4054300059
 C         -3.1477695891       -0.3271133409        1.4993958575
 C         -2.3592862979        2.4267056241       -0.7142072464
 C         -1.5344963990        1.2950833486       -1.2147381990
 C         -0.2022963879        1.2562869327       -1.1052730673
 N          0.6213988272        0.1095683039       -1.5276198584
 C          2.0048771162        0.1997731819       -0.9778444512
 C          3.0129302131       -0.6320891593       -1.7698227458
 C          4.3931938846       -0.4381828281       -1.1856438732
 C          5.0545049544        0.7673836886       -1.3329538083
 C          6.3128873942        0.9553355391       -0.7793850082
 C          6.9355158672       -0.0641886425       -0.0766671636
 O          8.1530357701        0.0061618771        0.4972174692
 C          8.8993414643        1.1951294619        0.3753244935
 C          6.2684653548       -1.3094228381        0.0671893973
 O          6.9527549577       -2.2531659417        0.7485252062
 C          6.4026248018       -3.5420395473        0.8761079716
 C          5.0064892672       -1.4712128075       -0.4799898823
 C         -0.0125987008       -1.1801127199       -1.1773590704
 C         -4.2546996302        3.0119901326        0.8963763962
 C         -4.9764337752        2.6506288891        2.1928465753
 C         -3.8719553095        4.4893789697        0.9065376361
 H         -4.7739476076        0.9899268783       -1.1346286171
 H         -6.9442574789        0.2231692859       -1.6932933820
 H         -7.1642998061       -1.1071507464       -2.8555292724
 H         -5.7320907234       -0.0594059306       -2.9773117126
 H         -4.9769479232       -3.9993972569        2.1527132037
 H         -5.1830387832       -5.1578930037        0.8167754933
 H         -3.5705328989       -4.4875907279        1.1639278352
 H         -3.2659489116       -2.3548464219        2.1417754201
 H         -2.4990746658       -0.0619421196        2.3195594441
 H         -3.1365843840        2.6565234576       -1.4425977333
 H         -1.7438479623        3.3140413673       -0.5695930282
 H         -2.0855371980        0.4630577761       -1.6239538223
 H          0.7092551015        0.1420525334       -2.5447385386
 H         -1.0639109518        1.5963759712        1.4228746679
 H          0.3634168042        2.0839945044       -0.7122971686
 H          1.9857625379       -0.1137769643        0.0682495067
 H          2.3227233043        1.2433157652       -1.0154562282
 H          3.0114229076       -0.3052180923       -2.8134698476
 H          2.7631733516       -1.6929673189       -1.7410418045
 H          4.6059437683        1.5733271201       -1.8946538741
 H          6.8042220674        1.9051380654       -0.9104575135
 H          8.3923298149        2.0377144101        0.8557998749
 H          9.0998225131        1.4372128682       -0.6726836191
 H          9.8401957231        1.0017654260        0.8868829094
 H          7.1453750492       -4.1236573216        1.4185474393
 H          5.4689639687       -3.5277208944        1.4480526584
 H          6.2274032373       -4.0021079921       -0.1017072362
 H          4.4923368283       -2.4137919520       -0.3747042361
 H         -0.8832489121       -1.3623506640       -1.8015038368
 H         -0.3332139251       -1.1581639133       -0.1362332699
 H          0.6920347751       -1.9954257183       -1.3218716493
 H         -4.9545602247        2.8517486143        0.0681023779
 H         -4.3318570834        2.8472332374        3.0429143020
 H         -5.2622270039        1.6014612530        2.2008400841
 H         -5.8759505490        3.2527436641        2.2897648876
 H         -3.1535209388        4.6855893270        1.6956655252
 H         -3.4556658933        4.8067132065       -0.0463684281
 H         -4.7602365446        5.0858424932        1.0970440638
 H         -1.2400538786        2.9223094000        3.3220173142
