72
 energy: -99.336543837773 gnorm: 0.003046834332 xtb: 6.6.1 (8d0f1dd)
N           -1.36033360257337        1.65483907332894        2.22175954117019
C           -1.46412891909548        2.02300336546066        0.99254651200432
C           -2.29158464455918        1.42986313863923        0.01331013462541
C           -3.09875337096678        0.27163708418927        0.23562896031917
C           -3.99057273201534       -0.21797603970615       -0.74703422395865
C           -4.73939780506882       -1.35827763163559       -0.54805840856288
O           -5.62055264707580       -1.87878701835863       -1.43463698293659
C           -5.86442984091082       -1.19992481194760       -2.64151131200548
C           -4.61364894558165       -2.09058816423762        0.66537751898552
O           -5.36124665290882       -3.20645505868401        0.75473006908861
C           -5.28466050141836       -3.98911220161303        1.92351620376577
C           -3.75164012923091       -1.60458820651932        1.64345272516426
C           -3.01992188334262       -0.45535434455461        1.44013411677428
C           -2.20394931283639        2.02868328142326       -1.35872184921916
C           -1.30116500787853        1.16576645194136       -2.29475390872854
C            0.08735241195941        1.16360045921455       -1.80058707553634
N            0.63637092862050        0.20974700523557       -1.06727883804871
C            1.99209941265961        0.34246230541665       -0.59182156116633
C            2.99436004452411       -0.39746655312782       -1.49961301102669
C            4.39602581898556       -0.19053470132858       -0.99794868201892
C            5.05356090312051        1.00616476391193       -1.23334760053763
C            6.33516905265580        1.21946649467234       -0.75084298406627
C            6.98791120524371        0.23553936645993       -0.02268464994811
O            8.22964716204611        0.33175352073569        0.49082781206952
C            8.96620909994173        1.51472579676459        0.28602428761238
C            6.32390619293988       -0.99757061410740        0.21960602610136
O            7.03401871972878       -1.90191785888358        0.92447181315851
C            6.48045605455819       -3.17210478131119        1.17089189827099
C            5.03876084660174       -1.18460249767177       -0.26529422650534
C           -0.02221623797341       -1.05230234457795       -0.82473179087131
C           -5.48707818235798        3.44861829290071        1.31633149470977
C           -5.27104210562061        2.24195025652328        2.11637970367356
C           -4.42027389710160        4.38980548593134        0.96207859406827
H           -4.11578257517624        0.32039112999819       -1.67087624968839
H           -6.24141404674862       -0.18751812421895       -2.46536519889015
H           -6.62634052045850       -1.78241267299578       -3.15494883527717
H           -4.96637820754340       -1.15252556143209       -3.26613222570462
H           -5.61630431654423       -3.42883103667509        2.80205296404709
H           -5.95454342351956       -4.83006249954651        1.75785315520030
H           -4.26843387272773       -4.36068454453074        2.08967149496931
H           -3.64565017890499       -2.12825210561203        2.57965612174511
H           -2.35834099108374       -0.09293075085206        2.21026351121580
H           -3.18641656987190        2.11452797539149       -1.82130320794142
H           -1.77835453899932        3.03171156221003       -1.30449170831448
H           -1.71368123657151        0.16034037201603       -2.35230739060705
H           -1.32590706828304        1.62063683348902       -3.28692076510939
H           -0.88803916365465        2.88419194756632        0.62107201518049
H            0.67433757873424        2.05696757766210       -1.94748562037674
H            2.05145940893047       -0.05937176879675        0.42340136521633
H            2.26095425971088        1.40012191313693       -0.55443225357624
H            2.90025179717326       -0.00418892719167       -2.51441128305986
H            2.75617293299624       -1.46175469794390       -1.51999619621593
H            4.57325599528294        1.78285421561268       -1.80898796757832
H            6.82190128846254        2.15918009915793       -0.95378581331971
H            8.46862358979332        2.37957844783231        0.73549134211851
H            9.13517878699001        1.70257087348747       -0.77847070969777
H            9.92224477189424        1.35219427983694        0.77974830788581
H            7.24529114806603       -3.72300314589001        1.71469657441702
H            5.57771213544389       -3.10502814203628        1.78651879279263
H            6.25028345603978       -3.69741379478726        0.23870982559715
H            4.52748474224507       -2.11750968983419       -0.08665865280121
H           -0.21833528877797       -1.57697430409709       -1.76162360538816
H           -0.96717802245821       -0.89897312840620       -0.30154508327802
H            0.61552940782779       -1.67620387733100       -0.20482628037357
H           -6.49159805102971        3.67804373013470        0.99178732379512
H           -4.21602313535311        2.06020134171725        2.30346604352070
H           -5.70517201652932        1.36479929983290        1.62758966391576
H           -5.78884888951811        2.32525827690894        3.07783522172847
H           -3.44467127752739        4.01649846858536        1.26149895256027
H           -4.41891267236252        4.59262291467383       -0.11247260063679
H           -4.59174534372160        5.35879683845618        1.44225842019334
H           -0.73534573021000        2.20622688222245        2.79653508820440
