72
 energy: -99.262836928916 gnorm: 0.002055021760 xtb: 6.6.1 (8d0f1dd)
N           -2.06944187854626        3.16470192686845        1.88740868119701
C           -1.88488357322733        2.37250146823928        0.93669758876809
C           -2.96220096955275        2.05142992916154       -0.08131573591594
C           -3.45711790025693        0.62700661658498        0.11210456595008
C           -4.39058502222163        0.11478348674413       -0.79124232650256
C           -4.89217520609974       -1.16836008249564       -0.65989280991049
O           -5.78821244464598       -1.74453209059927       -1.48836976174178
C           -6.31047337341820       -0.99732413380899       -2.56115430984899
C           -4.45526669448798       -1.97949897533700        0.42203010663228
O           -4.99428296519123       -3.21584360233761        0.47422679471530
C           -4.69266209688990       -4.04729437950433        1.56977911170763
C           -3.53913926268299       -1.45832907190513        1.31992914043446
C           -3.04337014235045       -0.16806367528058        1.16529242666695
C           -2.30570426742346        2.21483383958215       -1.48990313128534
C           -1.37663652063598        1.06065362923630       -1.89752213755039
C           -0.06909545728974        1.07517848615426       -1.20460984514976
N            0.54595127327439        0.01121394190444       -0.69304489059086
C            1.92233705907515        0.10214928044563       -0.26659269932444
C            2.89191341186060       -0.42484427284533       -1.34315363979361
C            4.31339303919586       -0.21056967651229       -0.90417581722581
C            4.94464262340969        1.00034816148209       -1.13598477498239
C            6.24624242923421        1.21631335094586       -0.71020741476064
C            6.94304459018258        0.22223176324437       -0.03943617646612
O            8.20679643428454        0.31895905838217        0.41701984619250
C            8.92315482891910        1.51343804912605        0.20544743013315
C            6.30379426303020       -1.02406076637079        0.20368334129692
O            7.05601725358138       -1.93513699981913        0.85472922542653
C            6.52466895718551       -3.21340441315248        1.10765103848346
C            5.00074565831725       -1.21541828377599       -0.22735983412462
C           -0.06724028002785       -1.29465352158712       -0.67818484872295
C           -4.11836867629804        2.98417417182618        0.04085633946112
C           -5.16247474048619        1.53391385506179        3.61249556199310
C           -3.97442797524410        4.44243281291694        0.01634093400840
H           -4.73563049938887        0.74437029889965       -1.59502735145166
H           -6.84800764683922       -0.11140630362423       -2.20993458422235
H           -7.00594499115042       -1.66265872006932       -3.06831485666223
H           -5.52498909444346       -0.69486208236043       -3.26134632164071
H           -4.97672249805486       -3.58078704299002        2.51776337524601
H           -5.28183377672067       -4.95014566123502        1.42193116118908
H           -3.63007273721275       -4.30979914526329        1.59598588634532
H           -3.20483750514712       -2.04604087858170        2.15947081708299
H           -2.34807837457705        0.21012009006455        1.89841955152740
H           -3.10516586059048        2.28585802321776       -2.22682360682045
H           -1.75202305683711        3.15426872150406       -1.51071641150736
H           -1.89392832735229        0.11222008911030       -1.76259268446595
H           -1.18215446191358        1.18131770795278       -2.97202406465625
H           -0.93628985483819        1.85296865313457        0.72223362331931
H            0.49415155208190        1.99616357767104       -1.21694637545107
H            2.05251284535350       -0.47304654062531        0.65378527303050
H            2.16592410416658        1.14525593060363       -0.05474540271199
H            2.70572148037555        0.11523786534058       -2.27347509559547
H            2.70607462357956       -1.48542684915463       -1.51609748241436
H            4.42795813900719        1.78649811916767       -1.66562061449685
H            6.71295489599030        2.16633028847879       -0.91237823940789
H            8.43940993088657        2.36342030002714        0.69650998124175
H            9.04170779714199        1.72614807839906       -0.86128120145194
H            9.90222489946240        1.34915475784545        0.65131499236442
H            7.31756328696708       -3.76483351711722        1.60924278351326
H            5.64984970362137       -3.16244319759011        1.76397514447051
H            6.25750146921114       -3.72832113723331        0.17955600468348
H            4.50903051471512       -2.15954940970111       -0.05218427943631
H           -0.16799372885911       -1.69850120453455       -1.68848939575634
H           -1.05761477113243       -1.24614525791807       -0.21971798196227
H            0.55066058280280       -1.97247404866094       -0.09457993541342
H           -5.06159807931039        2.56904848581672        0.35280638501621
H           -4.25623958936960        2.05608464306369        3.39122770401847
H           -5.25088422346094        0.49482857598368        3.38160704942399
H           -5.99064685994911        2.05772856414544        4.03753420267774
H           -3.70646862868554        4.79147191766405        1.02203158856312
H           -3.18181986005009        4.77236688877569       -0.65175868316574
H           -4.91241234715087        4.92224248491218       -0.25432500240107
H           -1.28431582994689        3.32854657486148        2.51070691083601
