25
 energy: 0.000000000000 xtb: 6.6.1 (8d0f1dd)
C            3.23720163006194        1.16630919979326        0.08434469647475
N            2.29877817382611        0.07527477071623        0.03981603040599
C            2.58028210190900       -1.21425402444508        0.03006176031096
N            1.43813958087363       -1.93419271955128        0.00098261760884
C            0.39035688448383       -1.05887472636071       -0.00790371836672
C            0.93510056364412        0.21347819449412        0.01709077491437
C            0.09450143893243        1.40504303904423       -0.00410947031874
O            0.49712751527797        2.54126714362870       -0.00342325688240
N           -1.25076640035757        1.06271879480407       -0.03085478223738
C           -2.21907211982101        2.15522099834493       -0.05001256985998
C           -1.81739487048744       -0.20012725993278       -0.04692818574614
O           -2.99983886758376       -0.37846417018721       -0.07008878229737
N           -0.92618586207120       -1.30210215599479       -0.03682761578324
C           -1.46982264913417       -2.64643102187190       -0.06029820460571
H            3.71247264356769        1.21471455160235        1.06488849150277
H            4.00791497605742        1.03430808813993       -0.67357694370751
H            2.69910007168542        2.09770118228144       -0.09130154882931
H            3.56654120610678       -1.63682992603973        0.04233140067262
H           -1.67107961066214        3.09322851271934       -0.02552706933167
H           -2.82428953597071        2.09428624779827       -0.95318082946668
H           -2.87644029173232        2.07745725625962        0.81450067533302
H           -1.17061996399332       -3.19584890659852        0.83242232437030
H           -1.14560257411436       -3.17511610292205       -0.95688275822323
H           -2.55549792440841       -2.55659984320617       -0.07459039797972
H            1.38130855184625       -2.94313852034425       -0.01389874181052
25
 energy: -5.140194277063 xtb: 6.6.1 (8d0f1dd)
C            3.24638757721085        1.19006468338545        0.08643446538154
N            2.31559568870410        0.10263136240391        0.03812531214096
C            2.61550443531327       -1.22264687254244        0.03108202983062
N            1.44622265829621       -1.93719117877722        0.00230455916221
C            0.40486391375487       -1.06277873609630       -0.00724858353819
C            0.93641459556831        0.21951025434381        0.01574040044585
C            0.10757686320561        1.39183559459876       -0.00530201453074
O            0.50317558861439        2.55811847379418       -0.00536287412668
N           -1.25318591301748        1.04460654644680       -0.03073229375274
C           -2.21368052004950        2.14071497739591       -0.04983849492629
C           -1.81544312307618       -0.20740458104564       -0.04622846389512
O           -3.01213002651952       -0.38863658282963       -0.06932520847519
N           -0.93034376849115       -1.31189531537989       -0.03612236286170
C           -1.50407287424764       -2.64806453906118       -0.06167525758636
H            3.72594609821865        1.23904606288549        1.06782243680828
H            4.01535781342257        1.06002190079734       -0.67669771073001
H            2.69585477740035        2.11252952063483       -0.08870583547949
H            3.59889932005350       -1.63826651489340        0.04397213465382
H           -1.65306760619384        3.07269040574324       -0.02572943047551
H           -2.81903831581750        2.08674071917937       -0.95418329546380
H           -2.87106401392493        2.07068546452208        0.81612377654298
H           -1.22311393785629       -3.21544437431003        0.82812690822951
H           -1.19792775551314       -3.19031015324229       -0.95884024869924
H           -2.58987314685937       -2.53881622349001       -0.07506936226380
H            1.38335633974004       -2.93871229229113       -0.01163669024363
25
 energy: -4.853963511485 xtb: 6.6.1 (8d0f1dd)
C            3.25508658626446        1.22346579443057        0.08824274173358
N            2.33552070074552        0.13130580681349        0.03481453562070
C            2.65890774273221       -1.22121450153763        0.03372927969680
N            1.46972232912227       -1.93385534389713        0.00594603464480
C            0.42662471817174       -1.07520351707491       -0.00560861702884
C            0.94095306245982        0.22028882152112        0.01384538127368
C            0.12709462654738        1.36723720753363       -0.00740405258280
O            0.50194402406702        2.55491229458662       -0.00971036330822
N           -1.25117268219015        1.01815257770933       -0.03035724167168
C           -2.20052320597385        2.11883806787039       -0.04954466748354
C           -1.80084452204831       -0.22300455866425       -0.04437387534442
O           -3.00500921759561       -0.40644906862565       -0.06692063047214
N           -0.92810632642150       -1.33265148342965       -0.03417445793331
C           -1.56502471596769       -2.65051099388295       -0.06469438753128
H            3.74476523661665        1.28196685792115        1.06713379557924
H            4.02499494705368        1.11093300528533       -0.67999211384389
H            2.69029767734732        2.13828035207342       -0.08194729527328
H            3.64435011078814       -1.62014939443969        0.04746467486668
H           -1.62203286656348        3.04123671314042       -0.02632779304995
H           -2.80649089278803        2.07236508157737       -0.95445583155041
H           -2.85786042884533        2.05793068400769        0.81768094850519
H           -1.32712018996323       -3.25001272911276        0.82060758354971
H           -1.30234875522225       -3.21591955756195       -0.96489750221660
H           -2.64936865019504       -2.48814989074370       -0.07598564090740
H            1.40785535979449       -2.93076362332826       -0.00603660912532
25
 energy: -0.059809272013 xtb: 6.6.1 (8d0f1dd)
C            3.25915631907380        1.26466056179464        0.08896227065847
N            2.35805203963227        0.15621086492565        0.03115031380122
C            2.70810850584164       -1.21067056428116        0.03806195977757
N            1.51348995359878       -1.93061586779333        0.01203330268827
C            0.45450116739850       -1.09989641570507       -0.00297989078167
C            0.95154698845044        0.21139707326539        0.01218117883572
C            0.15007450489505        1.34183209471224       -0.01027309377644
O            0.50129951990779        2.54246872113868       -0.01585731678493
N           -1.24178504550688        0.98956547793378       -0.02982385924907
C           -2.18085938798653        2.09285572104128       -0.04929369902328
C           -1.77701606430283       -0.24605676003155       -0.04137795294455
O           -2.98606270884375       -0.42710968439249       -0.06274956898154
N           -0.91811479069370       -1.36669798393414       -0.03104102638383
C           -1.64872839867644       -2.65550059873132       -0.06936773406033
H            3.76078293899625        1.33664346628521        1.06325182300956
H            4.03063720964609        1.18175860073266       -0.68471475575001
H            2.67707720470339        2.17184155973122       -0.07201086379262
H            3.70299925590407       -1.58255058060397        0.05256144906406
H           -1.58524585694205        3.00509075189299       -0.02763683987511
H           -2.78696568903889        2.05124601188484       -0.95430616299655
H           -2.83694485897138        2.03928463748921        0.81930521217017
H           -1.47623802909727       -3.29530708142963        0.80959066670689
H           -1.45296963481490       -3.24773633632391       -0.97514214388735
H           -2.72756515783305       -2.40737877506530       -0.07678543792614
H            1.46298468259581       -2.92630629236390        0.00329606564876
25
 energy: 8.349028426618 xtb: 6.6.1 (8d0f1dd)
C            3.25542779761197        1.30935356738833        0.08865754064779
N            2.37790807656689        0.17744753445439        0.02742498760377
C            2.75650226785717       -1.19166928480065        0.04394979042859
N            1.56924975359886       -1.92614289164710        0.02018467911062
C            0.48023655667540       -1.13386582867022        0.00010498526060
C            0.96263429633514        0.19399965339793        0.01061916735101
C            0.17214901905451        1.31856215744754       -0.01378168792593
O            0.50079720723118        2.52381064708977       -0.02294940830433
N           -1.22885423315309        0.96209595282798       -0.02911127944884
C           -2.15177794503569        2.07352921935214       -0.04904361514916
C           -1.75265631074493       -0.27251551093539       -0.03731233694239
O           -2.96662031079556       -0.43715887961037       -0.05631857480759
N           -0.91021708322820       -1.41516595208566       -0.02716915417716
C           -1.74288909679689       -2.67401881775173       -0.07551118828246
H            3.76911184706844        1.39456986019745        1.05708956350874
H            4.02700947133561        1.26139245379406       -0.69106177148787
H            2.65492958853487        2.20867356923809       -0.06035212436105
H            3.76710025309689       -1.52607316787579        0.05867232424749
H           -1.53196888727628        2.97087103415788       -0.03015782721288
H           -2.75830779538381        2.04211509567560       -0.95378380031747
H           -2.80581700773328        2.03450350128895        0.82155447804921
H           -1.64134132533747       -3.35042972051799        0.79274477434572
H           -1.61990019947515       -3.28520481747554       -0.98618030236297
H           -2.80966059725409       -2.34719050093070       -0.07727402168301
H            1.53916932518374       -2.92246027183700        0.01603869805680
25
 energy: 19.579755440521 xtb: 6.6.1 (8d0f1dd)
C            3.24562759256158        1.35183030732922        0.08748084407270
N            2.39531406521271        0.19089552622641        0.02474556230374
C            2.79973488127163       -1.16182852333784        0.05132577217031
N            1.63664902218462       -1.91862222577451        0.02949929689010
C            0.50223266497027       -1.17367701754448        0.00225255409456
C            0.97709621467194        0.16844997022793        0.00904091775399
C            0.19464818799022        1.30129113135364       -0.01772106744100
O            0.50870163744001        2.49883614504177       -0.03005139785924
N           -1.20769585256494        0.93912519981000       -0.02864422156015
C           -2.11749471370877        2.05790574522560       -0.04886956221269
C           -1.72791153182151       -0.29917758686110       -0.03292608439005
O           -2.94570297805816       -0.42906598387198       -0.04764361069425
N           -0.90581678413802       -1.47424113297984       -0.02400110604026
C           -1.84551475413806       -2.70372149086808       -0.08263682672890
H            3.76902970819269        1.44852943195063        1.04938087957579
H            4.01416413332079        1.34013094729420       -0.69821930243882
H            2.62675038465788        2.24261144925597       -0.04830214716299
H            3.83132298972954       -1.44927655284512        0.06548403728630
H           -1.48002558910266        2.94268090834182       -0.03341796247726
H           -2.72427086775559        2.03527255257129       -0.95266701582627
H           -2.76825453908795        2.03259358749645        0.82365628681650
H           -1.81577921869951       -3.40435596619692        0.77124207596905
H           -1.79685346862451       -3.31936829645631       -0.99726074099621
H           -2.89110108490780       -2.31078224720551       -0.07594940635912
H            1.63736456833981       -2.91700727601125        0.03123612140140
25
 energy: 30.040817484075 xtb: 6.6.1 (8d0f1dd)
C            3.23691493035237        1.37588452661147        0.08591177839875
N            2.40775741091251        0.19334195119547        0.02538998861334
C            2.82477457309851       -1.12596550700871        0.05829907149680
N            1.69606206276487       -1.90888713160671        0.03651394029650
C            0.51791066643602       -1.20106895414846        0.00180977398719
C            0.99447851428980        0.14702754648593        0.00752150318726
C            0.21299041132878        1.29484242510118       -0.02052117647780
O            0.53220421664227        2.47895229774078       -0.03529846902241
N           -1.17787697189627        0.92568588411084       -0.02880603052793
C           -2.09279583167705        2.04194042871077       -0.04888306788529
C           -1.70767149030085       -0.31841590522168       -0.02962118325479
O           -2.92539361089904       -0.41216466992047       -0.03879496600399
N           -0.90317174546054       -1.51841013309100       -0.02360549562146
C           -1.92842908861525       -2.72771031591807       -0.08847395314794
H            3.76164194895667        1.47624310047336        1.04414713614332
H            3.99796638891121        1.38355834906961       -0.70364992605216
H            2.60446226904697        2.25764837893439       -0.04181901637353
H            3.87205527665351       -1.37440130098481        0.07155853771562
H           -1.46552372391097        2.93043769094804       -0.03592666692624
H           -2.69954952566181        2.01598515570853       -0.95135150021703
H           -2.74012458499687        2.01582428988190        0.82445631029942
H           -1.95088039188316       -3.43458651816834        0.75260981740902
H           -1.93558278813355       -3.33211417328157       -1.00667652938320
H           -2.94976049511787       -2.28751710494773       -0.07138850998181
H            1.72975624709599       -2.90710170850276        0.04363252947559
25
 energy: 38.610574086302 xtb: 6.6.1 (8d0f1dd)
C            3.23667390129194        1.39079900585607        0.08474418646139
N            2.41888372170072        0.20066265677385        0.02714493392688
C            2.84580486422368       -1.10178434753304        0.06392634792829
N            1.73376731777908       -1.90480888662207        0.04080252176086
C            0.53483709938069       -1.21194479953810        0.00132596894610
C            1.00747002327864        0.14042944188329        0.00565452235419
C            0.22533168011883        1.28717531668709       -0.02244389036728
O            0.55534773891124        2.47381447587839       -0.03984436456603
N           -1.15344813550176        0.91309321740976       -0.02907207615377
C           -2.08184161441322        2.02119872046167       -0.04889498512624
C           -1.69148697929357       -0.33042336914784       -0.02692574479401
O           -2.90919233145018       -0.40937596808768       -0.03163122300058
N           -0.89772838010905       -1.53605302527327       -0.02368384701176
C           -1.98487765009435       -2.73238531566796       -0.09265233088971
H            3.76007841006380        1.49109432729035        1.04284580489245
H            3.99269460331905        1.40270182661400       -0.70746848668110
H            2.59292933776396        2.26366396225575       -0.04060819696795
H            3.89820893515453       -1.33026697228320        0.07763874087048
H           -1.47326619453921        2.92255006715349       -0.03722753469436
H           -2.68887062610427        1.98341510828341       -0.95088609454184
H           -2.72752759000919        1.98366553175696        0.82511328775985
H           -2.04458988430222       -3.45341392924738        0.74150397885063
H           -2.03428416763658       -3.33327208314357       -1.01767035269879
H           -2.99193398248039       -2.24266752068511       -0.06628650883470
H            1.78923457088406       -2.89883883890290        0.05162923872425
25
 energy: 39.167695196337 xtb: 6.6.1 (8d0f1dd)
C            3.24092457615682        1.38514736818774        0.08368404500668
N            2.41925267452023        0.19932368049960        0.02984534930738
C            2.84313456471456       -1.09072614392319        0.06684498185444
N            1.73998025670845       -1.90216998504171        0.04084803222141
C            0.53694592303129       -1.20638878492971       -0.00050193948593
C            1.01180877384292        0.14364698391133        0.00373799802717
C            0.22233289032910        1.29064339069544       -0.02346214909338
O            0.56744605510044        2.47694523827942       -0.04038960960743
N           -1.14195259781424        0.91608463491782       -0.02996518046957
C           -2.08439983625001        2.01603965897775       -0.04869518810592
C           -1.69001302306189       -0.32723156495419       -0.02661145461922
O           -2.90676449292774       -0.39434416099521       -0.02728574124509
N           -0.90099370638496       -1.53094098940011       -0.02581934794735
C           -1.99683713255475       -2.73454480161337       -0.09413266429759
H            3.76018419552065        1.48205648364777        1.04349112700352
H            3.99569719634607        1.38686644969785       -0.70688549687805
H            2.59921714715916        2.25659910715868       -0.04477075159438
H            3.89394718834682       -1.31980231186156        0.08115838913694
H           -1.49379079022255        2.93060847317477       -0.03668863861040
H           -2.69167746170738        1.96516397971231       -0.95047705315691
H           -2.73002701479610        1.96362284381539        0.82520393053161
H           -2.04997015756731       -3.44644829359458        0.73607932822474
H           -2.04233752622794       -3.31915154985620       -1.01910508535082
H           -2.99386056655304       -2.25906359554308       -0.06227365574235
H            1.80396753222760       -2.89290750879103        0.05320467103776
25
 energy: 39.763746389863 xtb: 6.6.1 (8d0f1dd)
C            3.24465915757480        1.38736192587506        0.08344761864769
N            2.42091536711185        0.20371475628832        0.03073059004368
C            2.84791944498081       -1.09180240660989        0.06842567672265
N            1.74061005880121       -1.90339289583555        0.04097162359817
C            0.54112844464360       -1.20419684428027       -0.00062504039102
C            1.01185922869533        0.14687423985493        0.00262654775254
C            0.21972032889314        1.28880310098727       -0.02446436415491
O            0.56828336527685        2.47848553051580       -0.04044843576944
N           -1.14231510326107        0.91528474728805       -0.03055387959140
C           -2.08654702447171        2.01386101326446       -0.04885534960439
C           -1.68882789610156       -0.32775790837923       -0.02601971742388
O           -2.90657009901987       -0.39647664636135       -0.02537915606024
N           -0.90084078879253       -1.52758820852863       -0.02612211515065
C           -2.00185350401262       -2.73465115752475       -0.09499500076585
H            3.76421015339369        1.48493674701387        1.04391109017146
H            4.00183922883419        1.38600883374651       -0.70649920608549
H            2.60278617377422        2.25881967145721       -0.04669199031650
H            3.89795171451317       -1.32309926930039        0.08328973049496
H           -1.49707495612505        2.93000144379321       -0.03639446066288
H           -2.69389012503958        1.96012859345573       -0.95066695048636
H           -2.73253367551881        1.95777384258728        0.82502323941099
H           -2.05409100718417       -3.45273464803746        0.73410818433849
H           -2.05119312993973       -3.31901849844343       -1.02335232730462
H           -2.99897444100444       -2.24917622872682       -0.05886420388385
H            1.80504375191449       -2.89313113192799        0.05443179261811
25
 energy: 40.314005424388 xtb: 6.6.1 (8d0f1dd)
C            3.24847602379381        1.38887175095373        0.08320346812684
N            2.42178057903431        0.20695131075249        0.03220608499291
C            2.85072454458501       -1.09235314927584        0.06999272295180
N            1.74025993040557       -1.90299457673238        0.04100448821034
C            0.54411945248630       -1.20171631179487       -0.00078170348518
C            1.01191559308474        0.14918307125879        0.00174159279644
C            0.21551150267438        1.28850144196552       -0.02530833467400
O            0.56770117853659        2.47849811523357       -0.03970265253655
N           -1.14397875006127        0.91641041006459       -0.03150747964259
C           -2.08850338510697        2.01482899729495       -0.04920248056839
C           -1.68872200623285       -0.32845355060757       -0.02558597205202
O           -2.90732535888916       -0.39705774444677       -0.02325827026120
N           -0.90216536405324       -1.52495667378033       -0.02674196843108
C           -2.00665154433213       -2.73877877878477       -0.09586114498425
H            3.76807210026462        1.48764380675326        1.04409013879849
H            4.00845644091627        1.38363530036058       -0.70541403101653
H            2.60873469342742        2.26183360491739       -0.04954189570968
H            3.90067457033994       -1.32557774924339        0.08459396139515
H           -1.49834871335660        2.93049902402545       -0.03589715651880
H           -2.69583912184515        1.96074163284427       -0.95093820639617
H           -2.73490784274500        1.95718232378227        0.82438873225278
H           -2.05366037620278       -3.46079119498021        0.73112420615840
H           -2.05638411517435       -3.31955659888852       -1.02698163517787
H           -3.00281892437175       -2.25078118569584       -0.05468752170807
H            1.80509356075851       -2.89273467380441        0.05609895362646
25
 energy: 41.388185100880 xtb: 6.6.1 (8d0f1dd)
C            3.25149929775323        1.39085122721160        0.08308557725608
N            2.42278826046932        0.20978298520310        0.03397647091676
C            2.85336395377570       -1.09093707520196        0.07138868352211
N            1.74184750225128       -1.90118061092602        0.04117902530591
C            0.54710573306051       -1.20022055258418       -0.00082759260082
C            1.01285861415748        0.15012445995501        0.00145713948604
C            0.21283380687425        1.28867965439965       -0.02554682977047
O            0.56765269172361        2.47747510415498       -0.03886472379798
N           -1.14471043115003        0.91713900093155       -0.03252844729544
C           -2.08903047878691        2.01583143143944       -0.04962586533287
C           -1.68808737825126       -0.33041599985941       -0.02541470164316
O           -2.90713613782586       -0.39801886198459       -0.02156473510052
N           -0.90320212475632       -1.52440684551746       -0.02754596599390
C           -2.01433920378748       -2.74486350407052       -0.09667855033877
H            3.77053473921538        1.49090828589532        1.04428200702390
H            4.01334175866073        1.38206934484834       -0.70427558620150
H            2.61427499323358        2.26536308987508       -0.05246695745290
H            3.90371177665351       -1.32394708701565        0.08478184456709
H           -1.49791661303836        2.93053798180962       -0.03540434866924
H           -2.69623654779973        1.96313990571935       -0.95140439419570
H           -2.73578094732840        1.95828993220212        0.82363697043924
H           -2.05662978424355       -3.46980830985087        0.72775835640135
H           -2.06518352162043       -3.32118321991410       -1.03013192991102
H           -3.00881682397531       -2.25520463654543       -0.05021766857390
H            1.80747153267129       -2.89097709800300        0.05798611810692
25
 energy: 42.411332000034 xtb: 6.6.1 (8d0f1dd)
C            3.25306910854931        1.39237077397323        0.08315297587172
N            2.42352540207334        0.21165664634164        0.03539164773793
C            2.85509011969766       -1.08893649039544        0.07205049917523
N            1.74397457002717       -1.89920236988256        0.04116835644586
C            0.54911953126149       -1.19957564537487       -0.00065877102623
C            1.01391991748350        0.15032944875614        0.00187917203144
C            0.21260855103192        1.28920147129395       -0.02512097362256
O            0.56792083456163        2.47682339109029       -0.03816037397175
N           -1.14461710896269        0.91718820580665       -0.03324688215226
C           -2.08849532628050        2.01621620332497       -0.04993691309326
C           -1.68733770532601       -0.33226895645338       -0.02569519080056
O           -2.90641781046556       -0.39912007416699       -0.02127426124712
N           -0.90337299422388       -1.52479012008941       -0.02818470028832
C           -2.02122005537928       -2.74998453888339       -0.09695016584117
H            3.77120228148208        1.49337509151798        1.04462620211401
H            4.01561201937928        1.38134581538584       -0.70344657510674
H            2.61757067657940        2.26782572848048       -0.05450149337100
H            3.90584335309189       -1.32047084886281        0.08372624303742
H           -1.49667322735982        2.93023660695016       -0.03503849323293
H           -2.69545496410819        1.96550762593423       -0.95192886629039
H           -2.73547018405118        1.95968423798274        0.82310816585710
H           -2.06052291969200       -3.47636432939733        0.72591768065255
H           -2.07284038025548       -3.32317392792074       -1.03163360835707
H           -3.01445779268399       -2.25989930580135       -0.04718217536329
H            1.80963877150613       -2.88894603743805        0.05897239698868
25
 energy: 43.221650072917 xtb: 6.6.1 (8d0f1dd)
C            3.25388948801673        1.39324159370438        0.08334710178285
N            2.42409071341267        0.21279655437711        0.03646727030344
C            2.85618370591780       -1.08712237714268        0.07219444432723
N            1.74593884565602       -1.89765884574192        0.04078535795695
C            0.55036710065184       -1.19916607779116       -0.00040329791732
C            1.01481213065644        0.15057560644480        0.00267576495530
C            0.21372357202880        1.28993865879271       -0.02441290539632
O            0.56822009610671        2.47706124394969       -0.03749947773060
N           -1.14408900342514        0.91694242466446       -0.03370155763763
C           -2.08774460155125        2.01604423464676       -0.05013923175943
C           -1.68663791583835       -0.33339859512516       -0.02630634054063
O           -2.90553927601148       -0.40006897931967       -0.02217422124795
N           -0.90281455889212       -1.52499158461634       -0.02867079278232
C           -2.02653532293594       -2.75372012245776       -0.09672482506746
H            3.77107592543061        1.49492325692746        1.04512252356882
H            4.01665218626838        1.38083501662096       -0.70277254937439
H            2.61929519351191        2.26908258796577       -0.05578582976069
H            3.90722097330921       -1.31696710957485        0.08207026509083
H           -1.49588080289976        2.93003374660227       -0.03477730695931
H           -2.69443068868227        1.96674818391651       -0.95239587941438
H           -2.73487617366924        1.96022334576004        0.82277572047332
H           -2.06386843508474       -3.48041280757431        0.72558191562583
H           -2.07849553546216       -3.32520140344354       -1.03198788570027
H           -3.01914701987795       -2.26342823319410       -0.04518675379580
H            1.81080407129949       -2.88728171621949        0.05895238714719
25
 energy: 43.824151546046 xtb: 6.6.1 (8d0f1dd)
C            3.25445188350818        1.39369270276500        0.08356625987915
N            2.42465445308050        0.21344382974092        0.03724852071903
C            2.85700739727716       -1.08584422108320        0.07205181838959
N            1.74749525312500       -1.89668430712326        0.04007226499757
C            0.55109434110843       -1.19877254169175       -0.00008840868633
C            1.01547061162456        0.15110719858349        0.00361802954035
C            0.21521475178893        1.29068380292499       -0.02367667431148
O            0.56835993214289        2.47796875386697       -0.03683417625532
N           -1.14346577835109        0.91670829549931       -0.03391922337674
C           -2.08718049607684        2.01563058569862       -0.05025259339990
C           -1.68604048224084       -0.33371381922370       -0.02707989612243
O           -2.90475195760237       -0.40072725648820       -0.02386213320400
N           -0.90182663134367       -1.52472743089410       -0.02894679851623
C           -2.03042330618026       -2.75629995630380       -0.09616210143573
H            3.77094191831686        1.49592042124479        1.04561019560426
H            4.01739602290225        1.38051256289213       -0.70220737135235
H            2.62013370539149        2.26955144543514       -0.05652175727333
H            3.90826236939822       -1.31431725399188        0.08030791281142
H           -1.49575276445820        2.93003556576262       -0.03459773502446
H           -2.69365446611060        1.96685617369149       -0.95271427801280
H           -2.73443027851412        1.95988609623594        0.82258870381558
H           -2.06660755750241       -3.48272420748295        0.72636897994857
H           -2.08229309759620       -3.32719031813234       -1.03158719891797
H           -3.02280439304556       -2.26574329466354       -0.04412936628201
H            1.81096323729395       -2.88622422509069        0.05818092261279
25
 energy: 44.147435348465 xtb: 6.6.1 (8d0f1dd)
C            3.25491554015912        1.39384620817380        0.08371574068833
N            2.42519490324134        0.21366148831562        0.03766423354368
C            2.85757464873124       -1.08534692953365        0.07181273947741
N            1.74830361474694       -1.89631736364772        0.03929370673110
C            0.55137421379535       -1.19837117581641        0.00016721306864
C            1.01584695488178        0.15179326063763        0.00439894320806
C            0.21617152874116        1.29120260701754       -0.02313848924602
O            0.56828235859367        2.47894961362987       -0.03625038978824
N           -1.14307037649690        0.91669835312334       -0.03388387506416
C           -2.08705794926468        2.01534031388493       -0.05027911084060
C           -1.68566260040869       -0.33339910000153       -0.02775093189647
O           -2.90426149226188       -0.40112856409528       -0.02566797231924
N           -0.90084275467491       -1.52412839778681       -0.02901187539785
C           -2.03250239027197       -2.75768315835569       -0.09556206063355
H            3.77115024947564        1.49642483704722        1.04590380873903
H            4.01809280887346        1.38036946829072       -0.70183800159930
H            2.62049103477398        2.26954715952846       -0.05678377301031
H            3.90895076653415       -1.31324749319489        0.07904661491371
H           -1.49620678107699        2.93024276017040       -0.03450953642526
H           -2.69344942087173        1.96626101406996       -0.95281031067425
H           -2.73439233171892        1.95915668046664        0.82252297008972
H           -2.06822692508658       -3.48346835010523        0.72761948889512
H           -2.08395743592280       -3.32884278367761       -1.03085800214673
H           -3.02484238017666       -2.26667866606680       -0.04391291370114
H            1.81033888362113       -2.88585317990254        0.05714567953557
25
 energy: 44.317951202092 xtb: 6.6.1 (8d0f1dd)
C            3.25533996877193        1.39401244579278        0.08375105588193
N            2.42579311700227        0.21366073944365        0.03776277641813
C            2.85807683661832       -1.08536006128874        0.07155612261297
N            1.74863830987000       -1.89628601535130        0.03860976205239
C            0.55141901601612       -1.19805101105884        0.00038119684311
C            1.01610273349953        0.15246341470744        0.00500418641429
C            0.21646204440253        1.29142623086658       -0.02276455560023
O            0.56813485763418        2.47963094690110       -0.03574196322420
N           -1.14284513037614        0.91688138469053       -0.03356981241546
C           -2.08721727962661        2.01525940378388       -0.05021701375553
C           -1.68537739673519       -0.33279994120546       -0.02826657754743
O           -2.90397190342527       -0.40130834411013       -0.02741789073059
N           -0.89999711387742       -1.52355379365999       -0.02885993470319
C           -2.03355848025496       -2.75842254646571       -0.09506111315445
H            3.77175120008534        1.49679767521819        1.04591883481145
H            4.01874473750873        1.38065503326068       -0.70172728253059
H            2.62058502960147        2.26947038761976       -0.05670508001333
H            3.90954532631101       -1.31334683237323        0.07834377566470
H           -1.49683481573333        2.93050567781971       -0.03450321826608
H           -2.69362886255646        1.96535180145252       -0.95269816873788
H           -2.73460521236162        1.95844596508912        0.82256365810045
H           -2.06964409433807       -3.48335809437524        0.72898254976589
H           -2.08446113903230       -3.33042220792126       -1.02997366520526
H           -3.02574462156854       -2.26672631976826       -0.04449472906140
H            1.80950754050072       -2.88589733689587        0.05616098252755
