25
 energy: -42.501240062347 xtb: 6.6.1 (8d0f1dd)
C            3.27312457546035        1.38513178924279        0.08654383635301
N            2.45767944770818        0.21116479980620        0.03773316015028
C            2.88063432669451       -1.05251089205367        0.06491580806608
N            1.78814284949625       -1.88075307740982        0.04241169527260
C            0.61762083201372       -1.14036964772328        0.01196668207788
C            1.09455253795312        0.18406598777839        0.00791732704974
C            0.24570901773203        1.32176310487917       -0.01960145845303
O            0.61021132223072        2.49389275708303       -0.03267907750359
N           -1.06294994827813        0.93505396072761       -0.03203994194856
C           -2.05287717957334        2.00840333402482       -0.04952023621532
C           -1.56108576781924       -0.38056324882717       -0.01848312942133
O           -2.77034350878557       -0.43699532883344       -0.01863534508693
N           -0.70237824460441       -1.46154391473028       -0.00412681737946
C           -2.39123475139035       -2.94906157213609       -0.10663668533869
H            3.77548290413007        1.44543803858837        1.05455188914054
H            4.02996927303581        1.32457172628003       -0.69614198212524
H            2.63700364189749        2.26375587495482       -0.05142148428007
H            3.91962720966397       -1.31483755328248        0.07412331286099
H           -1.47248479064332        2.93463992118464       -0.03471242603901
H           -2.66710846201034        1.93714491568546       -0.94801676050259
H           -2.70694120094951        1.93215437214743        0.82003171769229
H           -2.12452292524852       -3.51562159089231        0.75557130368829
H           -2.12717259858583       -3.38627444210837       -1.04097973341762
H           -3.24969929742371       -2.31880352378125       -0.05376230578673
H            1.84898519844895       -2.88088553358818        0.05305756976780
