  25
        -42.12627670
 C          3.9318449556        0.4553644212        0.0691494932
 N          3.5013031126       -0.7197901308        0.2772782859
 C          2.6928614595       -1.6593601822       -0.0684950530
 N          1.3390780588       -1.6631101697       -0.2169563687
 C          0.3974980690       -0.6770005580       -0.0901547395
 C          0.6669179641        0.6817029046       -0.0679583948
 C         -0.3608607992        1.6063207982       -0.0254405743
 O         -0.0468145732        2.8995303388        0.0024402722
 N         -1.6688768868        1.1972282863       -0.0462341688
 C         -2.7213900437        2.0289239342       -0.1204304730
 C         -1.9794418596       -0.2020957851        0.0333688792
 O         -3.1239012667       -0.5587930968        0.1166936421
 N         -0.9205358847       -1.0784280142        0.0046507566
 C         -1.2674723399       -2.4884508950        0.1171163663
 H          4.6134877763        0.8711775572        0.7962838128
 H          3.7363673388        1.0192697632       -0.8383715265
 H          1.6676869118        1.0659098471       -0.0868864341
 H          3.1310068757       -2.6504689470       -0.1177834714
 H         -0.8085176759        3.4719116137        0.1712079696
 H         -2.5994160056        3.0827122541       -0.2722318639
 H         -3.6980158225        1.5873154131       -0.0966376637
 H         -0.7348965026       -2.9492365784        0.9498631972
 H         -1.0745265721       -3.0209089344       -0.8159910466
 H         -2.3371034638       -2.5460299691        0.3186770280
 H          0.9481727565       -2.5904870288       -0.3382699814
