  25
        -42.04509155
 C          3.3983775263        1.1876416276       -0.0099481865
 N          2.4536285034        0.0995821838       -0.0124539755
 C          2.7886013481       -1.1846448752       -0.0212298541
 N          1.6892713135       -1.9445876956        0.0017026628
 C          0.5573099810       -1.1110754391        0.0255978012
 C          1.0929045196        0.2082810662        0.0144917437
 C          0.3407800387        1.4711606369        0.0086864166
 O          0.9036838156        2.5688789993       -0.0687371910
 N         -0.9712304492        1.3002833814        0.0909426817
 C         -1.9110796754        2.3273361400        0.1164765906
 C         -4.2731350832        0.1612407135       -0.1929968610
 O         -4.0523034503       -0.9371156698       -0.0866532986
 N         -0.6755834466       -1.4529888017        0.0514478137
 C         -1.1938458706       -2.7639642287        0.0680299016
 H          3.9151411711        1.2335084291        0.9494911510
 H          4.1323916275        1.0494039942       -0.8025333661
 H          2.8572839738        2.1232674466       -0.1639515673
 H          3.7968354009       -1.5554308154       -0.0376266232
 H         -1.4520459202        3.3201546448        0.0060010083
 H         -2.6441547056        2.1687460076       -0.6840720640
 H         -2.4655176145        2.2888662342        1.0612167089
 H         -0.8495325799       -3.3324877256        0.9401405863
 H         -0.9271506497       -3.3204557017       -0.8382312573
 H         -2.2804947791       -2.6894644812        0.1146902874
 H          1.6780634429       -2.9536498745       -0.0163874397
