  25
        -42.15180603
 C          3.1992018464        0.9611562828        0.0400103648
 N          3.3642378155       -0.3893273822        0.0107149181
 C          2.6287628776       -1.3969682382       -0.0118591784
 N          1.2473829533       -1.5614147226       -0.0200757071
 C          0.1451702266       -0.7569081673       -0.0052827982
 C         -0.0866130844        0.6401268712       -0.0035189128
 C          0.7260338400        1.7511346912       -0.0084200574
 O          0.6821584304        2.9317125031       -0.0428026654
 N         -1.4822263263        0.8189148707        0.0043094467
 C         -2.2235788646        2.0535465827        0.0068912811
 C         -2.1054601592       -0.3944703810        0.0082380048
 O         -3.2770057558       -0.6357082638        0.0173813737
 N         -1.0700146181       -1.3546628165        0.0015218826
 C         -1.3743152598       -2.7622570493        0.0027388580
 H          3.6206459915        1.3901662117        0.9526476830
 H          3.6603561809        1.4328296222       -0.8321586232
 H          2.0622894073        1.2962480952        0.0227768805
 H          3.1364896901       -2.3525805763       -0.0292603146
 H         -1.5519132626        2.9069913916        0.0389744944
 H         -2.8398761475        2.1105542627       -0.8918711026
 H         -2.8833307390        2.0757469710        0.8753630586
 H         -0.9808482100       -3.2548654293        0.8936806882
 H         -1.0041807555       -3.2513630836       -0.9001587415
 H         -2.4626187074       -2.8413147624        0.0162157665
 H          0.9799070011       -2.5408885690       -0.0367968895
