72
 energy: 29.682745986641 xtb: 6.6.1 (8d0f1dd)
N           -1.47040064375748        3.13931421982194        2.19883352071321
C           -1.57917616316111        2.45962273965600        1.15243867287577
C           -2.85590718159265        2.36106973070908        0.36533408052342
C           -3.34428788695284        0.90856823749331        0.37778697425665
C           -4.23121529821996        0.48863017713861       -0.61356514016577
C           -4.67491543669891       -0.82041376149271       -0.66312364276659
O           -5.53399433183460       -1.33057418091679       -1.59281234234018
C           -6.06120966256526       -0.46664399574165       -2.56621697392003
C           -4.23080550323284       -1.74258810795896        0.31216921056014
O           -4.72208592931075       -3.00955125146804        0.18784941837150
C           -4.39016889826232       -3.95129418088474        1.17485723039151
C           -3.35599473264047       -1.31372883164020        1.29353615870932
C           -2.91613803142653        0.00408452704165        1.32608501772903
C           -2.53462868905643        2.72927951594114       -1.02868007984355
C           -1.34778561847339        0.23752993197020       -2.05809622863114
C           -0.13042669889096        0.41402668386674       -1.51624730523965
N            0.49408767981127       -0.43742376466002       -0.63680236446995
C            1.87704041354210       -0.26071455443870       -0.27007010762876
C            2.89005855274009       -0.85458486805612       -1.27760895403549
C            4.30446813760643       -0.62761075584415       -0.82440399556622
C            4.94534547879363        0.56947171497412       -1.08092138247068
C            6.24398339106791        0.79184234015123       -0.64571066692053
C            6.92749545326198       -0.18494599878152        0.05451396249881
O            8.20535472188896       -0.08226631303657        0.51760719685136
C            8.93012727385304        1.08885776443753        0.24591476118376
C            6.28431873326317       -1.41349240804478        0.32547594943515
O            7.03473363444594       -2.32131722111281        1.01105599242107
C            6.48723796992800       -3.58412701188037        1.28581091694955
C            4.98721758161912       -1.61254767695685       -0.11108835854716
C           -0.08218993889644       -1.73747407181862       -0.43023079744036
C           -4.01466558663324        3.24178535460897        0.89810345904953
C           -4.46568789154681        2.78772301531813        2.28040834712525
C           -3.65177403891778        4.72078557761742        0.92935561032866
H           -4.54775292127226        1.19367164854379       -1.36347232632147
H           -6.62881324946660        0.35431313320154       -2.11555007690630
H           -6.73038770123902       -1.07855951809512       -3.16928825971648
H           -5.27752768204538       -0.05405734351789       -3.20938432756471
H           -4.70798381579657       -3.62601380275358        2.17162696384137
H           -4.92455520762866       -4.85939472709334        0.90261215796250
H           -3.31591854929195       -4.16095258651868        1.19081467802832
H           -3.00747863169376       -1.99248741515391        2.05597609735025
H           -2.23202479099393        0.31092988939451        2.10035193795079
H           -3.25562010959574        3.20238849584907       -1.63741401379289
H           -1.53261281033957        2.86928311666430       -1.33913647390240
H           -1.96337392577427       -0.62891166959878       -1.88831509268747
H           -1.64097915712389        0.83402891215595       -2.91039234486424
H           -0.75463702812550        1.89439484693214        0.71182673700488
H            0.49319426727325        1.30352769711382       -1.68547145822218
H            2.03122677907099       -0.73967708264396        0.70108009201278
H            2.09275460999225        0.80536206591453       -0.15549094322748
H            2.72810039209633       -0.37737613219195       -2.24516143854221
H            2.70060151395680       -1.92297797436263       -1.38627050971996
H            4.43942073667222        1.34627818933544       -1.63420112142428
H            6.71411051851903        1.73708954416547       -0.86615603597651
H            8.47243090249781        1.96555401722806        0.71602208543043
H            9.02905090290351        1.26378080749625       -0.83071647291659
H            9.91830727209143        0.92519051852126        0.67552504533312
H            7.27037965482109       -4.13285718408391        1.80806504047072
H            5.60593891734853       -3.51321563218378        1.93238279536615
H            6.22355161414545       -4.11861958602877        0.36728166576669
H            4.48709847350018       -2.54763201501779        0.08899545784870
H           -0.12595120051077       -2.32139172257106       -1.35796057743645
H           -1.09575581277376       -1.62321857955500       -0.04343307788121
H            0.51045231797630       -2.28495803645604        0.30143132726528
H           -4.84962857512762        3.10372823056379        0.19930142113188
H           -3.65256521709410        2.89704109947924        2.98916560041832
H           -4.79549864872106        1.75137720041799        2.26684483654169
H           -5.29701512126246        3.40703419820185        2.60393653220159
H           -2.86539307119350        4.88618432101086        1.65747163315657
H           -3.31241530306306        5.07624140860859       -0.04233599288237
H           -4.52889483715338        5.29150425907180        1.22224499197214
H           -0.54622218204193        3.14626158235179        2.62420077682068
