72
 energy: 24.793396834482 xtb: 6.6.1 (8d0f1dd)
N           -1.48153193970150        2.98577734289319        2.21736049512877
C           -1.56046756728078        2.33730107579320        1.14655501041992
C           -2.80057265360968        2.22663425723158        0.30923942551344
C           -3.33829426533416        0.80339289988421        0.36797361524477
C           -4.26389135970797        0.39141934148233       -0.59304997517083
C           -4.74563628527831       -0.90267171650808       -0.60929661149356
O           -5.64848093107815       -1.39835565454102       -1.50528958901039
C           -6.19584781149015       -0.52626947671506       -2.45974189371579
C           -4.29937174996834       -1.82394297343980        0.36487723661826
O           -4.83033755879711       -3.07762765705600        0.27400131594612
C           -4.49913008137491       -4.01223388971238        1.26779569016047
C           -3.38512366113873       -1.40784755743537        1.31311305992147
C           -2.90641413512419       -0.10346354544901        1.31088063142021
C           -2.35831458884207        2.40459807663273       -1.14034453134939
C           -1.45750034404898        0.73423531171728       -1.83421008484612
C           -0.11285504878539        0.72515836627445       -1.28922516398222
N            0.53732064258253       -0.27620405800448       -0.60230295905829
C            1.92422974065852       -0.17008166573846       -0.22412847138642
C            2.90701819621281       -0.72986022435884       -1.28155689436608
C            4.32761778162008       -0.55104513840416       -0.83461963091143
C            4.99833255804045        0.63402963282120       -1.06951494929279
C            6.30169428538180        0.81285525874930       -0.62933413406947
C            6.95668403526705       -0.19414659041035        0.05599702959027
O            8.23519959664084       -0.13317513224068        0.52323731232658
C            8.98683898649575        1.02633633970821        0.27700131570095
C            6.28015345134009       -1.40928354050720        0.30645877833143
O            7.00391973248417       -2.34768786870499        0.97888195565701
C            6.41975144821725       -3.59811157925395        1.23308813664232
C            4.97965662557016       -1.56639011616741       -0.13489174182157
C           -0.07471342415322       -1.56965922996151       -0.51056995437670
C           -3.95094776286998        3.17593797562293        0.76176827330439
C           -4.47710837955986        2.78347499299870        2.14236255160157
C           -3.54697288836525        4.64547137011641        0.77457665439557
H           -4.59100353092146        1.09134370672821       -1.34388839721788
H           -6.71633908009456        0.31545507723481       -1.99028562191398
H           -6.91097671345141       -1.12365466383214       -3.02377110194655
H           -5.43207586422614       -0.14286237532593       -3.14387680354856
H           -4.77714551186125       -3.65982617353581        2.26734010551442
H           -5.07044773385970       -4.90673892268564        1.02670007106111
H           -3.43174266235670       -4.25685766711468        1.25703043558890
H           -3.03215411403202       -2.08545092278148        2.07362464444997
H           -2.19555777497145        0.19607206076956        2.06417942693060
H           -3.15175104565130        2.82104437155657       -1.74321221034577
H           -1.47513083195460        3.01063066998650       -1.28468351351628
H           -1.98531753556201       -0.22230321944798       -1.76057264373796
H           -1.40872848906069        1.07018927644565       -2.86622176180358
H           -0.72196873583846        1.80207574748166        0.68274148525554
H            0.54606483960152        1.59482382569767       -1.39987588688657
H            2.07299932355445       -0.72005931542342        0.71447803464035
H            2.17674360276082        0.87786905507117       -0.04529548813468
H            2.73853909372455       -0.19791285753862       -2.21836294685765
H            2.69375331914116       -1.78701821992613       -1.44406258352506
H            4.51140757339344        1.43344167487595       -1.60768554518654
H            6.79792964320619        1.74779643622090       -0.83514740848516
H            8.54298325549487        1.90434104810191        0.75772921797150
H            9.09854323981747        1.21597905450003       -0.79587652390420
H            9.96707540789204        0.83429084449479        0.71223416698521
H            7.18547144354131       -4.17705633247265        1.74820607461308
H            5.53931586904810       -3.51134644002527        1.87894307041125
H            6.14322386466762       -4.11007968457952        0.30553878758624
H            4.45293057332837       -2.49045655076363        0.04867893422510
H           -0.17506696325095       -2.04834882777908       -1.49325230447238
H           -1.06592413692869       -1.47208290730200       -0.06259310433697
H            0.53693527300816       -2.20809496231443        0.12374059704019
H           -4.77004234470518        3.04981732201740        0.04098026510021
H           -3.69256349461753        2.89888242516051        2.88274634690012
H           -4.82836524461335        1.75417128359304        2.15196270607727
H           -5.30974664999253        3.43063784082189        2.41062909028340
H           -2.75965932974950        4.80370974498288        1.50450290615022
H           -3.20146974568401        4.97490156455984       -0.20236710644453
H           -4.40557608691326        5.25101114298876        1.05640576673537
H           -0.56780543350710        2.99601199285271        2.66695573064187
