72
 energy: 25.191238835510 xtb: 6.6.1 (8d0f1dd)
N           -1.45411041371681        3.29099662231888        2.19161904011484
C           -1.61212479826450        2.58726517246573        1.16676118488377
C           -2.92133827836104        2.50122173173889        0.41709550330720
C           -3.32776395865964        1.02273157856527        0.35217557314530
C           -4.17039982595566        0.58349504057111       -0.66753396595505
C           -4.58493339968283       -0.73355948731173       -0.73172720003107
O           -5.40626211891533       -1.25576188397495       -1.68412205227500
C           -5.91486751625709       -0.40621728065834       -2.68070612941817
C           -4.14974429408303       -1.65048589570883        0.25227275544285
O           -4.60877618462971       -2.92580939112083        0.10622541530425
C           -4.27168431702371       -3.87978368402291        1.07990853527974
C           -3.31748880939560       -1.20563270965810        1.26305054791116
C           -2.90874053096235        0.12192700770666        1.31095301391933
C           -2.61493587122620        2.99075640145279       -0.94631580242171
C           -1.24101365128507       -0.11540954654603       -2.26326070452210
C           -0.09418074497780        0.13984310662946       -1.63747125175233
N            0.49318708424318       -0.61456247862960       -0.65214450875229
C            1.86297645861524       -0.36097849462838       -0.29438837063165
C            2.88631207818850       -0.98564629357185       -1.26771867703521
C            4.29033925439189       -0.70835545286946       -0.81755176687176
C            4.89406038994654        0.50483619022783       -1.09195335503498
C            6.18632454393199        0.77248419807390       -0.66097593759639
C            6.89786641634433       -0.17517980333250        0.05220593779638
O            8.17278082877791       -0.03075402606154        0.51109508052799
C            8.86686304447719        1.15412223199511        0.21656392733554
C            6.28913854208286       -1.41712173313588        0.34459152408840
O            7.06680428144270       -2.29019562904741        1.04420218178706
C            6.56036882595134       -3.56617549365362        1.33943105639947
C            4.99805248659816       -1.66149962205364       -0.08637894012564
C           -0.06397462646246       -1.90716752992039       -0.34330070470621
C           -4.09157346194171        3.30884055902465        1.04201196324527
C           -4.47500884467760        2.80187008317376        2.42948871915206
C           -3.77281031848661        4.80164284105739        1.10515761678232
H           -4.49705948900628        1.29086714546653       -1.41238462815185
H           -6.53415701359893        0.39078337876470       -2.25511491706743
H           -6.53336446235078       -1.04106439479568       -3.31404119216469
H           -5.11554230825393        0.03656188484703       -3.28398744961139
H           -4.63092487151821       -3.58998611238035        2.07325365325740
H           -4.77124329855874       -4.79711003380781        0.77135497160863
H           -3.19083302478366       -4.05455940693566        1.12185213903359
H           -2.98422393305031       -1.88109552940632        2.03575885543581
H           -2.27286989483492        0.44482926936385        2.12083177171519
H           -3.34943164860754        3.52057366940985       -1.52191326621554
H           -1.66325365269713        2.77663332577065       -1.39452634409970
H           -1.82648467191787       -0.99805470805410       -2.08659881530134
H           -1.64502730807562        0.59217408310383       -2.96467363643320
H           -0.82236869004791        1.98750389098862        0.68970584468210
H            0.45308107296097        1.04718883252968       -1.86471647392403
H            2.03938162961698       -0.75465557819896        0.71190756246839
H            2.02359579510960        0.72110423843369       -0.26135879076674
H            2.71956536321414       -0.56186043326784       -2.26029969158236
H            2.71177997510471       -2.06155977669787       -1.32088419984158
H            4.36336360364159        1.25563636514596       -1.65852551278847
H            6.62983411240130        1.72726386979439       -0.89629794777497
H            8.39325646221159        2.02839160611770        0.67624174472534
H            8.95499123364854        1.31541577582033       -0.86318069400844
H            9.86071235284091        1.02015195684472        0.64153766028479
H            7.36206757712957       -4.08040732541834        1.86794730907802
H            5.67830873908408       -3.51421228836485        1.98696875588222
H            6.31162172543734       -4.12511824016221        0.43078349499713
H            4.52488561588303       -2.60761434377647        0.12904034330174
H           -0.04846021821647       -2.58679873218901       -1.20412851996703
H           -1.10063318517588       -1.78021647693006       -0.02296906043050
H            0.50085886808056       -2.35872979539288        0.47082265186913
H           -4.95069352627813        3.16428278758256        0.37500821972281
H           -3.63354073640830        2.90722322590591        3.10719818624940
H           -4.77683205974792        1.75749575586960        2.39723443259580
H           -5.30658607745106        3.38759594253381        2.81548635376399
H           -2.98501805097029        4.97901498541285        1.82984616576954
H           -3.44218829835786        5.17177216098591        0.13750420038633
H           -4.65880643919437        5.35700673092511        1.40463322578675
H           -0.51920434441507        3.30112680201458        2.59390971634546
