72
 energy: 4.183877653409 xtb: 6.6.1 (8d0f1dd)
N           -1.48746731646223        2.91313996937574        2.22605018933964
C           -1.55489502941580        2.27422461461612        1.14745211731179
C           -2.77991761928133        2.16302422831194        0.28440043702817
C           -3.33341486315420        0.74966659590537        0.35690679069693
C           -4.27883264070476        0.34236647292834       -0.58674112467292
C           -4.78164347473971       -0.94343386837387       -0.58313803841287
O           -5.70651450642256       -1.42977652455985       -1.45969597362663
C           -6.26337549899407       -0.55439556681342       -2.40549076312881
C           -4.33422726536940       -1.86426935076553        0.39083275595063
O           -4.88546620819312       -3.10867466116466        0.31842950394491
C           -4.55431457826279       -4.04174818575593        1.31421842363191
C           -3.39969422714023       -1.45424534106290        1.32120780638473
C           -2.90145496895439       -0.15751975860623        1.30015812680765
C           -2.28709480233506        2.30603853778881       -1.17872559198193
C           -1.46398942797400        0.94663148827309       -1.76083703587077
C           -0.08972566464495        0.88402797289627       -1.14256452608901
N            0.56901645537604       -0.19994865223992       -0.58455438066650
C            1.95056786470556       -0.12430421634191       -0.20067516495441
C            2.91857066086907       -0.66682439119417       -1.28069235740391
C            4.33969643725513       -0.51257844730502       -0.83849037255653
C            5.02575141073562        0.66636153157134       -1.06206274451086
C            6.33081659888721        0.82292256270610       -0.62073387893703
C            6.97102873171476       -0.19915412919110        0.05662440119969
O            8.25069981294043       -0.15904179614835        0.52569608165827
C            9.01498351393837        0.99397747523515        0.29134294712771
C            6.27766334399000       -1.40646156507378        0.29738730487014
O            6.98813220583317       -2.36059968474409        0.96286419084609
C            6.38543242834668       -3.60402654615938        1.20611092424949
C            4.97628235481919       -1.54269254272460       -0.14532810602236
C           -0.06527059621374       -1.48176566608522       -0.54830889113189
C           -3.92227353269738        3.14120553168906        0.69692330460219
C           -4.48367824712704        2.78090329866587        2.07450955598998
C           -3.49592668815581        4.60561920149176        0.69790826998281
H           -4.61405013036358        1.04121184650749       -1.33543569626255
H           -6.76141664881625        0.29645228397258       -1.92827869111196
H           -6.99976487402527       -1.14478427718939       -2.94860883470920
H           -5.51088732047387       -0.18506295383542       -3.10985515032751
H           -4.81261205922328       -3.67788934196306        2.31474431942171
H           -5.14413060213784       -4.92804936337251        1.08806151532669
H           -3.49123088871919       -4.30352909376952        1.28957547386743
H           -3.04572306034129       -2.13141290137091        2.08136259343958
H           -2.17846711213848        0.13795232928876        2.04339486041671
H           -3.11723168180720        2.65245757101196       -1.79474378867779
H           -1.52513337364589        3.08600595074629       -1.25610227122728
H           -1.95443038732927       -0.03786223926917       -1.71052915888342
H           -1.28357359320140        1.17326452910761       -2.82301485376082
H           -0.71068840154771        1.74796150268850        0.67370713557633
H            0.58037120863495        1.73614549491484       -1.25100101463911
H            2.09471487775919       -0.70406880491697        0.72172872080063
H            2.21874437956882        0.91400812937066        0.00912651702461
H            2.74594187552315       -0.10821767176496       -2.20080441271707
H            2.68949964858514       -1.71670529423652       -1.46663339765039
H            4.54851340233517        1.47633474141677       -1.59302798045866
H            6.84056354208165        1.75186400848865       -0.81975536357188
H            8.57923471094815        1.87324259293367        0.77747026797201
H            9.13287369923712        1.19119983190692       -0.77960648674730
H            9.99119594545471        0.78754161446442        0.72851001572866
H            7.14225317521358       -4.19809537039278        1.71686021782617
H            5.50571457062398       -3.51004599329988        1.85208404819399
H            6.10202272902237       -4.10460928762326        0.27430033232172
H            4.43607159635393       -2.46038826684595        0.03048330123396
H           -0.19114562361162       -1.90834993024081       -1.55091823874769
H           -1.04760191176483       -1.39640706621022       -0.07625146598783
H            0.54779501649150       -2.16065707335166        0.04030541583400
H           -4.73073163940158        3.01955253588799       -0.03598545341366
H           -3.71397364773670        2.90024623138843        2.83031925206638
H           -4.84488419942553        1.75536489533341        2.09500801382796
H           -5.31554496754417        3.44067809598648        2.31442170298814
H           -2.70744128748957        4.76187435587495        1.42743008153793
H           -3.14723453784071        4.92115634808277       -0.28177260842933
H           -4.34450624704852        5.22878259916723        0.97273470226352
H           -0.57842433280545        2.92054561339054        2.68635002328466
