72
 energy: 9.054922935404 xtb: 6.6.1 (8d0f1dd)
N           -1.48539118519031        2.93668251461083        2.22253323059851
C           -1.55511801397811        2.29400530549963        1.14654072454841
C           -2.78455126891659        2.18151178500967        0.29099275974350
C           -3.33525233039423        0.76681276098425        0.36149387850634
C           -4.27416605267492        0.35858731032311       -0.58832096078018
C           -4.76993422906913       -0.92991885063454       -0.59162481415152
O           -5.68726084430799       -1.41920974404849       -1.47491817388071
C           -6.24087603256954       -0.54477213770518       -2.42350202623088
C           -4.32281483191547       -1.85097895787205        0.38239361512745
O           -4.86731616627623       -3.09827824509466        0.30360270874015
C           -4.53613493103408       -4.03203033893854        1.29864329976087
C           -3.39507762767175       -1.43910694794781        1.31891208112686
C           -2.90311986166299       -0.13998636976277        1.30428970655031
C           -2.30280191881902        2.31934029251040       -1.17332301956528
C           -1.48248834293476        0.89662100997405       -1.77761073984931
C           -0.10178385857710        0.83715941351154       -1.18806063777755
N            0.55686380987679       -0.22549396090886       -0.58941100314444
C            1.94018651049930       -0.13923210143491       -0.20864649747116
C            2.91467528046214       -0.68727512461642       -1.28071535612201
C            4.33520755949325       -0.52482315171207       -0.83679871715756
C            5.01642067057679        0.65624623139768       -1.06399267189538
C            6.32099058337949        0.81998372490937       -0.62336591287503
C            6.96616274409935       -0.19726984117801        0.05646551759752
O            8.24582423115900       -0.15045318638576        0.52478787525648
C            9.00584629805306        1.00461718928085        0.28638295284764
C            6.27826026036214       -1.40701016618027        0.30057556634548
O            6.99328762712931       -2.35625376728133        0.96816513284177
C            6.39637326218604       -3.60179729738949        1.21487940223919
C            4.97711371583282       -1.55005971307841       -0.14132565745399
C           -0.06871749783603       -1.51133979967983       -0.53603318958303
C           -3.92966365585169        3.15193794254420        0.71682645137012
C           -4.48031841646357        2.78107135948419        2.09620350588290
C           -3.51194547724282        4.61845229403156        0.72275367725422
H           -4.60647583583556        1.05774554821498       -1.33797354712656
H           -6.74639514483301        0.30306131317892       -1.94877076644469
H           -6.97026168062164       -1.13741347958131       -2.97368323843209
H           -5.48458045780712       -0.17070037740119       -3.12117884792022
H           -4.80101560923048       -3.67204528316364        2.29890065375134
H           -5.11986761087243       -4.92101114396759        1.06734098853473
H           -3.47159622684401       -4.28806198725189        1.27851929778603
H           -3.04123702998250       -2.11638303420028        2.07898325322227
H           -2.18384897555420        0.15717327410448        2.05036523065958
H           -3.12517104406271        2.70183416065428       -1.77812285385373
H           -1.50653900404988        3.05831744308627       -1.26656170693009
H           -1.97187448873034       -0.08959690480728       -1.72450662889455
H           -1.32635477482190        1.13847040469446       -2.83777951031653
H           -0.71259829835030        1.76542180316579        0.67620274016810
H            0.56761454172162        1.69083822270666       -1.30260039553614
H            2.08654312174073       -0.70960260397791        0.71934472054073
H            2.20307176098794        0.90243104733779       -0.00873875296486
H            2.74319239822410       -0.13738130960096       -2.20627484615676
H            2.69085277302220       -1.73964580010527       -1.45882613177858
H            4.53584016335859        1.46277476725528       -1.59717251422298
H            6.82641445966997        1.75083482752022       -0.82479651997184
H            8.56750170319773        1.88351459150984        0.77076980241296
H            9.12157302901723        1.19936877777440       -0.78523824589260
H            9.98346108164347        0.80289119057793        0.72282753599783
H            7.15600032836142       -4.19117075854458        1.72701675905772
H            5.51641782565141       -3.51001466152841        1.86081038942724
H            6.11502508761567       -4.10594901941308        0.28440719923902
H            4.44125181969081       -2.46979187918144        0.03720203905848
H           -0.18465366951069       -1.95649475472940       -1.53213047713483
H           -1.05464704709512       -1.42233286594508       -0.07275271695816
H            0.54385788400858       -2.17631286621186        0.06921566135784
H           -4.74290610795541        3.02928438920475       -0.01078322946353
H           -3.70627348852285        2.89924754600457        2.84753893144054
H           -4.83854323120354        1.75439089047185        2.11364155592489
H           -5.31283524844132        3.43656625645953        2.34568670784908
H           -2.72417625750904        4.77558337466837        1.45268120303027
H           -3.16441069349027        4.93889843320599       -0.25585728173059
H           -4.36403782138494        5.23570257057665        0.99999396899674
H           -0.57478935246591        2.94597115869467        2.67934250173932
