72
 energy: 28.162865269097 xtb: 6.6.1 (8d0f1dd)
N           -1.46789159105638        3.19119432916041        2.19382175471916
C           -1.58896803359715        2.50025346486424        1.15633126092622
C           -2.87463919388782        2.40404215500292        0.38036195553207
C           -3.34511733342834        0.94398659053496        0.37889179606321
C           -4.21974504522464        0.52028838380314       -0.62151966913488
C           -4.65087039700333       -0.79332150957349       -0.68112939766553
O           -5.49517710054591       -1.30843725499106       -1.62120756615826
C           -6.01574998897206       -0.44800817282927       -2.60143105862488
C           -4.20739530240764       -1.71586053768554        0.29460098927019
O           -4.68539975847445       -2.98690108350980        0.15983931257008
C           -4.35333901318483       -3.93120229546212        1.14454476351758
C           -3.34587789232405       -1.28243361809388        1.28619029395738
C           -2.91886791381890        0.03963476849719        1.32899769603887
C           -2.57560467797669        2.80653495805994       -1.00809745639911
C           -1.33634476727987        0.10900390966727       -2.11365424081205
C           -0.13216971669906        0.31422641663487       -1.57243061692105
N            0.48046631294452       -0.49347938156033       -0.64554436200053
C            1.86116148214984       -0.29217401568632       -0.28475205784142
C            2.88428160680108       -0.89626728607815       -1.27566609100555
C            4.29619708537304       -0.65318721971514       -0.82082898297762
C            4.92735975263225        0.54794641751575       -1.08417807606476
C            6.22434866620276        0.78459349005870       -0.65093209944332
C            6.91730743283455       -0.18212107360233        0.05385685050980
O            8.19479198724440       -0.06565023778043        0.51558312130038
C            8.91026574054747        1.10946246326766        0.23613505678412
C            6.28507335516945       -1.41489736354711        0.33151006788410
O            7.04438252565270       -2.31220475163802        1.02137905500657
C            6.50954474892515       -3.57912049558384        1.30264106303175
C            4.98941610331533       -1.62807038905314       -0.10338790585403
C           -0.08405611300314       -1.79223231317912       -0.40289368006511
C           -4.03463535759154        3.26323941760054        0.94039894786762
C           -4.46213946897995        2.79115508177667        2.32460409678744
C           -3.68663857270604        4.74574423583975        0.98071802912527
H           -4.53393780781102        1.22724282484323       -1.37047161791273
H           -6.59945567514603        0.36551517451212       -2.15802506758576
H           -6.66879063817900       -1.06527881318618       -3.21661056216960
H           -5.22583811284559       -0.02551861885070       -3.23052032440714
H           -4.68447696092452       -3.61523010660648        2.13988756722977
H           -4.87546288417032       -4.84345279857784        0.86225436985084
H           -3.27711819086876       -4.12907307625140        1.16975536858569
H           -2.99909219384135       -1.96145502405784        2.04959265767248
H           -2.24500998643333        0.34876002838264        2.11136044779125
H           -3.28953729343628        3.31049387890840       -1.60511324920398
H           -1.58323669850254        2.84793370027401       -1.37146459138929
H           -1.95736885955624       -0.74965234873542       -1.92730175794837
H           -1.67120581761307        0.72888011565390       -2.92573131711862
H           -0.77004029159880        1.92454167049098        0.72248845607194
H            0.47884707724288        1.20422015364035       -1.76826819175635
H            2.01647285638020       -0.74621434831863        0.69781681938600
H            2.06451177939583        0.77934610940651       -0.19225979974993
H            2.72461647093565       -0.43726388357109       -2.25268961703658
H            2.70196524118313       -1.96759518604841       -1.36576568258627
H            4.41504203928712        1.31720547018113       -1.64209788226781
H            6.68601295693338        1.73304619206928       -0.87601183604844
H            8.44790818610011        1.98564720939663        0.70284866567081
H            9.00553131216761        1.28001830262258       -0.84155251779039
H            9.90078259329116        0.95533527463521        0.66395691203277
H            7.29831848433446       -4.11748336559482        1.82715839222641
H            5.62792227720517       -3.51399976380078        1.94943495481225
H            6.25041845157970       -4.12130782017318        0.38722987794539
H            4.49885906468980       -2.56705971025099        0.10173049273157
H           -0.10474821387734       -2.41045965441787       -1.30835582147046
H           -1.10574188483812       -1.67455424393122       -0.03950127096216
H            0.49909360426803       -2.30260180179682        0.36277430869017
H           -4.87682759139922        3.12202110454019        0.25157183664816
H           -3.64025904128648        2.89847169940185        3.02366143114108
H           -4.78512848956073        1.75269957758348        2.30487907958797
H           -5.29269949729215        3.40069279681533        2.66736471526910
H           -2.90059271072860        4.91354357650981        1.70846535108415
H           -3.34964806627532        5.11039251200937        0.01134586950364
H           -4.56930556136735        5.30574607170809        1.27762704655333
H           -0.53956808211955        3.19566040487657        2.61025450018396
