72
 energy: 31.455176175675 xtb: 6.6.1 (8d0f1dd)
N           -1.47274394703457        3.08782453641618        2.20494524237531
C           -1.57080668406812        2.41953774730372        1.14978258904541
C           -2.83627192713740        2.31887622897462        0.34826189438592
C           -3.34095613083073        0.87369062742969        0.37393753091126
C           -4.24101493560702        0.45646560574110       -0.60705563627742
C           -4.69833440912694       -0.84755628679540       -0.64531463811881
O           -5.57264922093517       -1.35277438402634       -1.56397284286302
C           -6.10644704505794       -0.48557113659766       -2.53073324800926
C           -4.25376391315304       -1.76947645434229        0.32950623868024
O           -4.75861125864045       -3.03229374848169        0.21605928127037
C           -4.42690244488583       -3.97151703220856        1.20536129555596
C           -3.36553704778521       -1.34500193236289        1.30008007911693
C           -2.91238153315605       -0.03149169969018        1.32128546169107
C           -2.48477374242977        2.65080765643961       -1.05320224995630
C           -1.35861304970230        0.36524467404953       -1.99756638248544
C           -0.12666734790842        0.50902592465059       -1.45095211114089
N            0.50862958845624       -0.38330295947105       -0.62706631152532
C            1.89322788714974       -0.22980926514759       -0.25413221992414
C            2.89531767661752       -0.81272626933787       -1.27892750948849
C            4.31224169210002       -0.60173206489192       -0.82735764837643
C            4.96280397762511        0.59125883851571       -1.07709721883820
C            6.26317308932453        0.79919580520929       -0.64018266890454
C            6.93728756174212       -0.18761879494841        0.05528274970208
O            8.21538751707275       -0.09881494187632        0.51945912861250
C            8.94943213369693        1.06834917421556        0.25569565034895
C            6.28306421032650       -1.41191499486385        0.31949007526536
O            7.02458434044936       -2.33012374785406        1.00044433457541
C            6.46458582145288       -3.58886236601116        1.26855671170046
C            4.98450182599699       -1.59679681828850       -0.11843993890180
C           -0.08026416514412       -1.68298312331988       -0.45700001819496
C           -3.99442142671133        3.22004107368267        0.85460342573642
C           -4.46970547620043        2.78495619395119        2.23529417378459
C           -3.61682434515731        4.69563019786365        0.87769162157942
H           -4.56118322762696        1.15998977155854       -1.35697764537167
H           -6.65778854227782        0.34285536255803       -2.07327055570787
H           -6.79149345619481       -1.09231050873693       -3.12133300571450
H           -5.32902438743176       -0.08309029437679       -3.18774032730821
H           -4.73123801872454       -3.63685645964856        2.20335171382062
H           -4.97377270318406       -4.87522891071559        0.94332113189978
H           -3.35475489159794       -4.19323322195539        1.21217234147363
H           -3.01573565373742       -2.02359732087818        2.06187509203725
H           -2.21934943913602        0.27251064245691        2.08903435242131
H           -3.22116253454536        3.08781251394271       -1.67178710154404
H           -1.48162133461992        2.88489002318615       -1.32082859631904
H           -1.97203364114446       -0.50744180143975       -1.84923894058372
H           -1.57711971045514        0.92785840507878       -2.89109038996057
H           -0.74135876406367        1.86432844057000        0.70162002143380
H            0.50669130124727        1.39799805150218       -1.59639375627553
H            2.04510301750637       -0.73363874510262        0.70635322654110
H            2.12055067116250        0.83092994773945       -0.11880957630034
H            2.73162479454176       -0.31742148596097       -2.23696823972045
H            2.69872467968082       -1.87785065878569       -1.40625431859732
H            4.46321521239264        1.37565944889508       -1.62553753343032
H            6.74186744737864        1.74110011689788       -0.85604604766062
H            8.49640550877630        1.94555222901399        0.72922636988836
H            9.05220935032883        1.24770236573693       -0.81983556207703
H            9.93509312698647        0.89515371416023        0.68717661591163
H            7.24195221739545       -4.14787679221045        1.78850063401661
H            5.58357371070543       -3.51228188191910        1.91486418870655
H            6.19652154887727       -4.11568559202264        0.34691952941519
H            4.47526447487345       -2.52821489685695        0.07614455119071
H           -0.14460132017412       -2.23178705219769       -1.40564455602571
H           -1.08597179649634       -1.57225322359097       -0.04841915431426
H            0.52105830453121       -2.26278634202859        0.24146861294441
H           -4.82252378404259        3.08530735375929        0.14645262690640
H           -3.66575790884009        2.89642694035457        2.95426489164415
H           -4.80611342147856        1.75076168596680        2.22842858401919
H           -5.30186759274153        3.41366581519051        2.53963810971690
H           -2.83008302953864        4.85864668300072        1.60630721446974
H           -3.27498829957111        5.04168086402909       -0.09615399293724
H           -4.48804477049445        5.27768687358113        1.16635447168447
H           -0.55250324518114        3.09654798188310        2.63888576539225
