72
 energy: 15.847901825200 xtb: 6.6.1 (8d0f1dd)
N           -1.48281094554814        2.96082809812021        2.21945407519639
C           -1.55652079442472        2.31488605880690        1.14604957402742
C           -2.79089612407778        2.20189029094879        0.29877387136574
C           -3.33702715568567        0.78443866373099        0.36534552784571
C           -4.26940708885592        0.37485711755298       -0.59034995795984
C           -4.75824502443356       -0.91636628792871       -0.60034523122987
O           -5.66819991537850       -1.40866457344483       -1.49015381236972
C           -6.21855968858337       -0.53534367457851       -2.44170353355718
C           -4.31153460962872       -1.83761608000822        0.37375051346708
O           -4.84922203847194       -3.08797547764212        0.28880912532781
C           -4.51775730164023       -4.02227426826533        1.28310046516189
C           -3.39051316912067       -1.42382463257972        1.31619346407710
C           -2.90486246901442       -0.12226183544675        1.30784490968279
C           -2.32366934100436        2.34583471493732       -1.16284128237797
C           -1.48333673434622        0.83241026919572       -1.79937802408822
C           -0.10876313542344        0.78560515312609       -1.23676109116781
N            0.54628344778794       -0.25098746231575       -0.59393049476387
C            1.93139075908795       -0.15448862053771       -0.21614991794430
C            2.91090236836592       -0.70820327937968       -1.28080469140760
C            4.33116641845015       -0.53754383577791       -0.83539944831502
C            5.00731852740022        0.64556943526251       -1.06637591553418
C            6.31137826196001        0.81665323512672       -0.62627947000888
C            6.96149335127035       -0.19563303899119        0.05610001286751
O            8.24082835445996       -0.14189879182927        0.52381789337839
C            8.99654151292124        1.01540372165689        0.28157411899469
C            6.27918314348005       -1.40793268332494        0.30347375425147
O            6.99865123237222       -2.35201891932942        0.97332303452130
C            6.40773113888645       -3.59980315341163        1.22366458452160
C            4.97828848092619       -1.55787475584686       -0.13781356207972
C           -0.07167548758157       -1.54060891794629       -0.52301295844015
C           -3.93884623125570        3.16321549756015        0.73774549610570
C           -4.47783203946034        2.78188283635446        2.11851075259074
C           -3.52886303059668        4.63146919477558        0.74811921333198
H           -4.59905684472979        1.07440202537532       -1.34070015796134
H           -6.73166565767895        0.30944711814109       -1.96966930052841
H           -6.94078062334778       -1.13032253052779       -2.99893978376984
H           -5.45842530242228       -0.15658444330030       -3.13256436760713
H           -4.78920753965475       -3.66625674712406        2.28308257226905
H           -5.09515740723553       -4.91409274580523        1.04682003633030
H           -3.45173368481712       -4.27236226789244        1.26751401824583
H           -3.03710301047066       -2.10122072416929        2.07639645978212
H           -2.18964962322811        0.17632538719086        2.05722226665808
H           -3.13465925391479        2.75600750552417       -1.76061050391723
H           -1.49036211059562        3.03343643070439       -1.27679147754867
H           -1.98232357280044       -0.14801522442445       -1.74050080727940
H           -1.36736468732843        1.10343186128521       -2.85304332036890
H           -0.71608640632449        1.78335504252720        0.67877507336407
H            0.55745638239245        1.64393859045817       -1.35205770234508
H            2.07952147452993       -0.71480438076130        0.71737246400105
H            2.18898790524118        0.89048977908283       -0.02671099564064
H            2.74073202561688       -0.16721365104869       -2.21192402161271
H            2.69229495653814       -1.76300038192072       -1.45099390100704
H            4.52345236262836        1.44862150022760       -1.60183391807556
H            6.81233832602275        1.74948857358731       -0.82999686331904
H            8.55541945607299        1.89381800070714        0.76421808386292
H            9.11024393163008        1.20774785040837       -0.79066760231643
H            9.97549242601321        0.81851414694523        0.71740533322003
H            7.17022808679862       -4.18425706496204        1.73726776077420
H            5.52753467990554       -3.51029345962831        1.86953768690017
H            6.12859102454513       -4.10770862004906        0.29461155026902
H            4.44690868394642       -2.47971803735522        0.04331233852710
H           -0.17842811308476       -2.00327566274736       -1.51249067095466
H           -1.06088304748915       -1.44781299188479       -0.06826416748848
H            0.54026826721545       -2.19186437268137        0.09793614676985
H           -4.75614571348129        3.03922005128027        0.01466023308232
H           -3.69881837046568        2.89879429862854        2.86469085948833
H           -4.83307473096336        1.75404398493561        2.13277639829812
H           -5.31048436693821        3.43343064426573        2.37750021309735
H           -2.74144556429559        4.78898626196175        1.47819876460434
H           -3.18253685534817        4.95682439477778       -0.22950619684676
H           -4.38429093685963        5.24278344630311        1.02801163011273
H           -0.57046976781955        2.97119435880984        2.67242688253925
