72
 energy: -4.178006781916 xtb: 6.6.1 (8d0f1dd)
N           -1.49188134016302        2.83835698954762        2.23538368683681
C           -1.55183140505614        2.21111320662995        1.14940623200234
C           -2.76257079386181        2.10728135425623        0.26432059412209
C           -3.32425823925845        0.69715499642769        0.34191799525277
C           -4.29014372614925        0.29346338109706       -0.58173011992566
C           -4.81488065293308       -0.98340046575563       -0.55670917717971
O           -5.76285718472281       -1.45981812518479       -1.41242762422493
C           -6.32917450572927       -0.58106418724498       -2.34963926646545
C           -4.36682751697246       -1.90369772410520        0.41722720442777
O           -4.93923242967187       -3.13872806215747        0.36374761402723
C           -4.60930676327014       -4.07143026257547        1.36040487156323
C           -3.41184686818600       -1.49958167000450        1.32916072904592
C           -2.89430070012965       -0.21045573744958        1.28843181492234
C           -2.24429570042197        2.28268234672297       -1.18796700442019
C           -1.36703599578501        1.06423174218094       -1.72257415821241
C           -0.04428754564474        1.01110827130111       -1.01843977892403
N            0.60394566304871       -0.12289932979699       -0.57050160918375
C            1.97893425086072       -0.07821071686976       -0.17817720862914
C            2.92794529141283       -0.60390717460863       -1.27996468484795
C            4.35031454587518       -0.47314224930456       -0.83968551761750
C            5.05068125214201        0.69916604777128       -1.05233672301611
C            6.35809198607776        0.83351139605063       -0.61075727234601
C            6.98376924204450       -0.20338279134121        0.05771579936601
O            8.26344669701376       -0.18432948220529        0.52740423316333
C            9.04169333198196        0.96189909119873        0.30521368915129
C            6.27365467182458       -1.40298044429999        0.28925366538531
O            6.97067056435192       -2.37194823877017        0.94687045502862
C            6.35086131175229       -3.60925559755598        1.17916193970580
C            4.97092627685056       -1.51797295337638       -0.15431009664875
C           -0.05728562619422       -1.39241836074328       -0.58412506940569
C           -3.89518727240056        3.10786652918020        0.63868158846559
C           -4.49016384194520        2.77858080916013        2.00854106150988
C           -3.44371769347610        4.56596274550741        0.62209309007535
H           -4.63408447912602        0.99201480125176       -1.32683006330523
H           -6.80423820914008        0.27857959494334       -1.86488396542896
H           -7.08687203545323       -1.16396157535010       -2.87090955747738
H           -5.58871228616947       -0.22606013797990       -3.07422296384430
H           -4.84770268350843       -3.69721092373940        2.36188094750073
H           -5.21842348635989       -4.94830887825587        1.14848374829578
H           -3.55113226945575       -4.35149821534695        1.32171460033293
H           -3.05867137904839       -2.17599881434554        2.09071440782027
H           -2.16112361025703        0.07986387542587        2.02430380368967
H           -3.08167785016670        2.51397005100975       -1.84347662483169
H           -1.58677142415008        3.15835833718458       -1.22893413032590
H           -1.86884253145614        0.09314740696371       -1.67919286078187
H           -1.14319424391953        1.27996858463306       -2.77818905070263
H           -0.69817287956159        1.69873751388054        0.66021389635988
H            0.61235414130587        1.86896674194130       -1.10191011739949
H            2.11216846283474       -0.68402831260110        0.72730629831047
H            2.26004892644373        0.95055931236418        0.05962957444871
H            2.75479432605233       -0.02053569313190       -2.18488959208956
H            2.68460689670465       -1.64629408334090       -1.48908454753301
H            4.58367555259019        1.51966496228951       -1.57636792541425
H            6.88127881066839        1.75616620404350       -0.80340820319748
H            8.61490877273945        1.84255609503896        0.79693685969097
H            9.16601742099591        1.16647277514250       -0.76364219758375
H           10.01347113101337        0.74034580221836        0.74415111965049
H            7.09925908966594       -4.21765197610732        1.68505905606709
H            5.47212920172388       -3.50889930796783        1.82558275492191
H            6.06097966526340       -4.09855256539819        0.24321296899015
H            4.41833258933161       -2.42990936985917        0.01292248816799
H           -0.20776882353322       -1.76585663630116       -1.60350495157053
H           -1.03146666702428       -1.31844215309322       -0.09193850003344
H            0.55392985892047       -2.10900470773131       -0.04105598229300
H           -4.68742241271171        2.98802145998426       -0.11100535897319
H           -3.73570799277746        2.90160021881729        2.77934459836105
H           -4.85978966231154        1.75636816566902        2.03684509669637
H           -5.32034824388399        3.44995609789095        2.21867241058365
H           -2.65310956088564        4.72274522741546        1.34966129210912
H           -3.09165757347797        4.86606513417068       -0.36118408677093
H           -4.28258680473255        5.20592986355204        0.88781119682227
H           -0.58908785550416        2.84442779906114        2.70800391409423
