72
 energy: 26.204175910259 xtb: 6.6.1 (8d0f1dd)
N           -1.46160792960791        3.26418235520586        2.18485670841773
C           -1.60392873453655        2.55865588248691        1.15983596010875
C           -2.90332225879374        2.46642212928910        0.40126085347839
C           -3.33866105392436        0.99537878870438        0.37129556840730
C           -4.19466090144614        0.56404253306706       -0.64133736553864
C           -4.61268790924439       -0.75380398891537       -0.70969448410585
O           -5.43689558446510       -1.27542878181051       -1.66309852966058
C           -5.94726751777803       -0.42026434801482       -2.65359783268223
C           -4.17155490137763       -1.67557984586453        0.26828316978074
O           -4.63028296478047       -2.95231096554742        0.11883069179797
C           -4.29755352287161       -3.90069541547115        1.09942963390815
C           -3.33031212339159       -1.23481917912095        1.27449963784651
C           -2.91854054077545        0.09253200079087        1.32716331106942
C           -2.61715775587372        2.91787710422205       -0.97633652862998
C           -1.28800648810307       -0.06788659771974       -2.21465492228659
C           -0.10578551102867        0.16367239422183       -1.65014562787136
N            0.47350094743634       -0.57696480701124       -0.65298459571711
C            1.84949345000920       -0.34088398370439       -0.30063437315304
C            2.87828445223973       -0.95893452385265       -1.27314312447658
C            4.28568439182523       -0.69193325480284       -0.81663761151798
C            4.90097847309670        0.51569106190771       -1.08949114517935
C            6.19515360559104        0.77368285403999       -0.65900637025698
C            6.90193502626110       -0.17786217563368        0.05259011249252
O            8.17837907744648       -0.04097406781186        0.51235983588333
C            8.88028460021153        1.14002848781529        0.22190396864575
C            6.28607693910336       -1.41679013545383        0.34046904535938
O            7.05845845912079       -2.29754566349888        1.03697677361955
C            6.54340798332979       -3.57057684015512        1.32863033299285
C            4.99311769171099       -1.65131369434424       -0.09204580664714
C           -0.08304015921825       -1.87028063430276       -0.35899220179880
C           -4.06507622627375        3.29328420274559        1.00240755975868
C           -4.45827433938220        2.79617793705285        2.38945749706666
C           -3.73945007617821        4.78179806538376        1.05703275926396
H           -4.51276501305457        1.27636196050356       -1.38400249194145
H           -6.55617697446573        0.38078892797544       -2.22165001944735
H           -6.57459436988535       -1.04608912081356       -3.28660070641695
H           -5.14867515055091        0.01825368211163       -3.26079906220271
H           -4.64924312023692       -3.59976850820627        2.09218024358070
H           -4.80056732534645       -4.81887801676846        0.80147150431532
H           -3.21856718889557       -4.08051986871600        1.13919518145636
H           -2.98830754137928       -1.91366621855235        2.04089848729074
H           -2.26583168305550        0.40624107311004        2.12627675407260
H           -3.33140160737962        3.46124626641946       -1.55235567846333
H           -1.63193120797635        2.84718710357342       -1.37981134785625
H           -1.91178569698750       -0.91625388197176       -2.00850803452874
H           -1.62653494812299        0.58155137476147       -2.98916615669837
H           -0.80009909925208        1.96988526912787        0.70640199469560
H            0.47480681752777        1.05637831539300       -1.88671520357500
H            2.02910306688215       -0.75004596389299        0.70150966916031
H            2.02560859503965        0.73942779000783       -0.24747297463259
H            2.72075936422055       -0.52714974045754       -2.26347192035385
H            2.70466464374032       -2.03373813736121       -1.33441818965286
H            4.37898458170377        1.27321370101348       -1.65446117674825
H            6.64427162761656        1.72654698708287       -0.89132230586218
H            8.41091554480346        2.01544993288461        0.68340536181642
H            8.97067965594507        1.30412802608459       -0.85724854078431
H            9.87385366879337        0.99995592453979        0.64749512394265
H            7.34073457445922       -4.09238644748551        1.85674625806043
H            5.66142684963350       -3.51430854505958        1.97581433427106
H            6.29162925480083       -4.12504380864478        0.41836861311087
H            4.51705205666255       -2.59595684613125        0.12038682480378
H           -0.06752685550235       -2.53876460101655       -1.22698998563772
H           -1.11792418017179       -1.75062335469573       -0.03509315410943
H            0.48053216697706       -2.32021270011117        0.45759420540251
H           -4.91787399219299        3.14850451437993        0.32850242225877
H           -3.62302631075446        2.90103105152789        3.07411395323872
H           -4.76917271188727        1.75415128131134        2.36078658813114
H           -5.28800544048479        3.38995281588789        2.76117313180197
H           -2.95402972441971        4.95423559019097        1.78434540750244
H           -3.40636132098295        5.15970920946390        0.09135805246056
H           -4.62988009573445        5.32744285608341        1.35923467598398
H           -0.52787094837146        3.26959866301480        2.58890450744119
