72
 energy: 31.243281375629 xtb: 6.6.1 (8d0f1dd)
N           -1.47876611015345        3.00979043412624        2.21578525008663
C           -1.56286209095162        2.35791706172599        1.14797152184883
C           -2.80868421876914        2.25146483860800        0.32016649086997
C           -3.33772913049106        0.82147559934157        0.36929241460058
C           -4.25726101776625        0.40760582758649       -0.59624897845387
C           -4.73306178950944       -0.88901083845883       -0.61795996452874
O           -5.62900285651077       -1.38747947112310       -1.51993873422377
C           -6.17298700585278       -0.51644882184868       -2.47733609789091
C           -4.28755758785405       -1.81045010227438        0.35636216685210
O           -4.81230902588468       -3.06692190504534        0.25947640364508
C           -4.48131750111394       -4.00270265700851        1.25203383223747
C           -3.37975698044687       -1.39226012043031        1.31027007948209
C           -2.90724339748197       -0.08538560771859        1.31369743190861
C           -2.39507753464577        2.47977615463041       -1.11302873184338
C           -1.41958993086799        0.62063466734619       -1.87966407828914
C           -0.11850354307183        0.66337856134361       -1.33759840383110
N            0.52837512235663       -0.30159072547050       -0.61145458871036
C            1.91591596638062       -0.18424905644259       -0.23164421876572
C            2.90262982932772       -0.75031334102580       -1.28106251797520
C            4.32319803248371       -0.56338139771549       -0.83228203550154
C            4.98881143938298        0.62354858257007       -1.07105677801694
C            6.29165498652837        0.80968843538915       -0.63157742029020
C            6.95167389227571       -0.19220118444162        0.05625862630400
O            8.22988398718247       -0.12421143645942        0.52229869846958
C            8.97740602045639        1.03733257959111        0.27172713210454
C            6.28058963395992       -1.40985910255115        0.31012371414478
O            7.00879244318947       -2.34312442470456        0.98430703104801
C            6.43078771097840       -3.59588815983172        1.24185355577985
C            4.98027155261838       -1.57378872264209       -0.13041453384855
C           -0.07841026496342       -1.59826075868630       -0.49666817461880
C           -3.96194303179619        3.18751555171047        0.78651770843175
C           -4.47570256664989        2.78411173675317        2.16618764790826
C           -3.56357723508217        4.65827238958024        0.80007648059823
H           -4.58192921571791        1.10818116380206       -1.34723392140333
H           -6.70064883678855        0.32227492552386       -2.01052318087055
H           -6.88123511903347       -1.11594174349296       -3.04791928700486
H           -5.40571150230275       -0.12862630209775       -3.15495673495076
H           -4.76568838766984       -3.65459380351455        2.25135661182683
H           -5.04694232273009       -4.89941158461203        1.00561606030443
H           -3.41268192175366       -4.24210690549031        1.24557522935439
H           -3.02794082475252       -2.07014188990626        2.07142382556723
H           -2.20079214023399        0.21474682079692        2.07109275420072
H           -3.17000529136826        2.89391348534182       -1.72448855835556
H           -1.45976127886297        2.98076873884666       -1.29132037290908
H           -1.98212035522476       -0.30380610048936       -1.78554956698555
H           -1.45255654720718        1.04094024990828       -2.87350382741965
H           -0.72582085327333        1.81906392217163        0.68736565467496
H            0.53142870839862        1.54442160616221       -1.45542827835083
H            2.06519181658093       -0.72305265560085        0.71221640193053
H            2.16181573710708        0.86700979813237       -0.06419168988673
H            2.73619180139061       -0.22787317396469       -2.22377106098847
H            2.69425434347477       -1.80972688699123       -1.43552531347924
H            4.49880873160989        1.41938435115791       -1.61179612308646
H            6.78342437119635        1.74651299834386       -0.83971394436491
H            8.53134802760195        1.91502824179150        0.75085637412628
H            9.08666998873399        1.22443251939001       -0.80179620562532
H            9.95912983474510        0.84999149592026        0.70582297607656
H            7.19949362972804       -4.17006334751805        1.75794591816097
H            5.55031204621351       -3.51165406865471        1.88793557296579
H            6.15627460244332       -4.11118343907654        0.31561142924216
H            4.45810735754536       -2.49995351112019        0.05571507431045
H           -0.17152339559225       -2.09323930895195       -1.47207913033917
H           -1.07241483851618       -1.49684022406261       -0.05700640374056
H            0.53196628278955       -2.22351796558756        0.15203297689129
H           -4.78192227608440        3.05853668219348        0.06727424325585
H           -3.68611426828348        2.89834064953056        2.90106483258662
H           -4.82261041045044        1.75339271628988        2.17063278482547
H           -5.30857319736776        3.42664539830594        2.44300870519783
H           -2.77617805841366        4.81814200256280        1.52936615151711
H           -3.21862574885978        4.99048270021287       -0.17656561376149
H           -4.42506407736674        5.25868367498527        1.08283707017349
H           -0.56348181549715        3.02117013672171        2.66147900161171
