25
 energy: 31.200646771598 xtb: 6.6.1 (8d0f1dd)
C            3.59246240099757        1.01339514250135        0.09761833435018
N            2.40162989320861        0.21101495672752       -0.05446934794612
C            2.54540116815981       -1.16840308434830       -0.13441460947285
N            1.31102124577136       -1.74289042394236       -0.13634081323497
C            0.35224274009344       -0.79794060094842       -0.06525079401220
C            0.93153504323757        0.47971945119900       -0.00362314986387
C           -0.00987048806521        1.54414003905755        0.08782938869564
O            0.14650385325800        2.74078114175720        0.13018875494173
N           -1.68846409163953        1.11836698209613       -0.05235873136727
C           -2.67769313604823        2.16467936741543       -0.04798022890828
C           -2.12865498745072       -0.13757159168393       -0.10184050264671
O           -3.22821346533146       -0.60526834609603       -0.19220916163015
N           -0.97932031533119       -1.09409857353941       -0.04991858875510
C           -1.26628610474212       -2.53142591473605       -0.02323425151884
H            3.96771398088610        1.17079048476171        1.12894902210988
H            4.44273930324096        0.43766721217484       -0.37719347491233
H            3.45594374366826        1.99507311071321       -0.34838073838382
H            3.44463326769200       -1.75384838682811       -0.12233749740347
H           -2.05782698009398        3.06921247984019        0.01381375811886
H           -3.30558858143465        2.14410159684122       -0.95314809443680
H           -3.40054890201342        2.04826418224021        0.77841001939289
H           -0.88016065443782       -3.03399767659052        0.86853552051242
H           -0.87918376137630       -3.03985986211196       -0.91354638871689
H           -2.33072407530943       -2.65878202036925        0.02016453099577
H            1.14056816670059       -2.74070184043830       -0.11269414019856
