25
 energy: 64.360761735089 xtb: 6.6.1 (8d0f1dd)
C            3.66824218496166        0.93213571417779        0.09917317695778
N            2.45225259432778        0.17021162136613       -0.06954333206066
C            2.57394887449440       -1.18146210819709       -0.26106190520481
N            1.34060714477041       -1.74676802529790       -0.24912491858809
C            0.37409668316920       -0.80305796922374       -0.10267782474626
C            1.00288186481090        0.46383850800103       -0.00254406360371
C            0.17228401099364        1.55621600697453        0.14596186412135
O            0.09312803543202        2.74536557299044        0.21908291861271
N           -1.90578048560944        1.11291081501461       -0.07102310200893
C           -2.85136590812186        2.18115542134901       -0.07710223907043
C           -2.31422010406049       -0.09719934283220       -0.10787489608444
O           -3.30542603343328       -0.73833494060332       -0.15122140995122
N           -0.92741554430820       -1.08692709040817       -0.01932137634091
C           -1.19505771661952       -2.51488240090583        0.00547126814527
H            3.92670470570638        1.29492519125811        1.09901410005068
H            4.50083431807151        0.22470500133782       -0.21921608808986
H            3.66670200703437        1.85794492970420       -0.45747039838451
H            3.46696017380009       -1.75141591700054       -0.23973837169051
H           -2.19978087232765        3.08160583768859        0.02317595203047
H           -3.45519017734941        2.17424296240283       -1.00534692149815
H           -3.59188689888753        2.03326015894572        0.72699479643370
H           -0.78657314245947       -2.99322258639065        0.89653010733116
H           -0.79555991637117       -3.01398632338263       -0.88468714034379
H           -2.25187856222055       -2.67604898638567        0.08328506640564
H            1.17514907518569       -2.73401927824095       -0.21756054121654
