25
 energy: 59.569567143429 xtb: 6.6.1 (8d0f1dd)
C            4.09249768882026        0.77048078451670        0.10612309520768
N            3.02758842738317       -0.17438674814852        0.05694364261203
C            3.15667877863935       -1.51969101786969       -0.04137894271744
N            1.91640422572166       -2.08470514204851       -0.04364352431060
C            0.92135392990913       -1.11678214885202        0.03671922654868
C            1.65773836572250        0.14908462367952        0.10498699839608
C            1.14656346724248        1.36287421821707        0.17690707337874
O            0.69617902470954        2.45181120174717        0.29121575212074
N           -3.50039222543539        1.30850456034332       -0.14173783462325
C           -3.80329288346150        2.68434974497578       -0.12843967372674
C           -3.85845762164434        0.18386879007342       -0.17336559549583
O           -4.08771542887316       -0.95290061815459       -0.20030140041437
N           -0.34310474592545       -1.21877244626802        0.05818307651084
C           -1.02115212667536       -2.48179241573467        0.00675628196667
H            4.10176759792713        1.30930614421951        1.05624052725418
H            5.04559027235991        0.25467983081085        0.00611411981243
H            4.00783768739984        1.49724642022983       -0.70369093011505
H            4.08520419545768       -2.03710832860743       -0.10247829965161
H           -2.86900413756903        3.23937516938412       -0.06500314509442
H           -4.32790177367611        2.96589487769418       -1.04427460414313
H           -4.43111481641562        2.92833394036182        0.73226651770481
H           -0.76261254095564       -3.10972256023170        0.86634861301684
H           -0.79042525805063       -3.02585291371045       -0.91274846675624
H           -2.09199203748915       -2.28660148449018        0.02548135313242
H            1.75841199838718       -3.07257421889424       -0.11853944849400
