25
 energy: -42.343996559897 xtb: 6.6.1 (8d0f1dd)
C            3.17108567295743        1.13361965613170        0.11325425439416
N            2.32842109252228       -0.02240158506449       -0.02060287552239
C            2.74941589102216       -1.29318515209177       -0.12531444089888
N            1.66969765665698       -2.11619919436287       -0.15863862401028
C            0.56401743588920       -1.36895726055036       -0.05433710283471
C            0.94402282495778       -0.03452402411031        0.00862967146615
C           -0.21815211624268        0.81044412156310        0.33627686504206
O           -0.11849244594191        1.88813530091828        0.97178216153686
N           -1.69927344266853        2.28178911320524       -1.38281457083472
C           -2.46747047461249        2.71614258967427       -0.44123239782125
C           -1.32248390634141       -0.22786295856378        0.47921383575862
O           -2.44119515871608       -0.15220696329159        0.95488670746353
N           -0.75012364646592       -1.54785714522161        0.12231996121241
C           -1.45018799178719       -2.80464146046782        0.14032615779369
H            3.53420968194609        1.23338094843165        1.14320999273971
H            4.03627202596630        1.04206612437745       -0.54797883570625
H            2.59475395390251        2.01912827414497       -0.14631654711382
H            3.75033264039119       -1.60698966635039       -0.24196447431845
H           -2.14801528560875        3.42444194423179        0.32077836083310
H           -2.36532169777076        3.21840179236756       -1.54202794624952
H           -3.30879128826132        2.04647898201068       -0.20527034464248
H           -1.00115149244267       -3.46491703463865        0.87383426688430
H           -1.42075388439923       -3.27733212359228       -0.83867283980157
H           -2.47921031672314       -2.56430964653230        0.44468977704420
H            1.67553701074901       -3.10134748254876       -0.30978496300467
