72
 energy: -99.275244193451 gnorm: 0.005017797888 xtb: 6.6.1 (8d0f1dd)
N           -1.89898242698733        2.90277811283525        2.20883036213710
C           -1.84346610304076        2.17360619700631        1.19696024244180
C           -2.98255216676743        1.94150558188742        0.24311328533405
C           -3.43125790497649        0.49082801652758        0.33033968373420
C           -4.33200900078962       -0.01482528615521       -0.60938252923411
C           -4.79325569005253       -1.31888781374137       -0.54124694194337
O           -5.66870761277759       -1.88225204807751       -1.39920661069720
C           -6.26190432266288       -1.08892686394401       -2.40016915565620
C           -4.33602659044945       -2.16962225757243        0.50143966075975
O           -4.83702463823722       -3.42119922313314        0.49030197301538
C           -4.51482707945558       -4.29754108733207        1.54489905092727
C           -3.44023467634328       -1.66244842012083        1.42883513584080
C           -2.99649254156078       -0.34856981103619        1.34422314091966
C           -2.41752284631171        2.24364945548233       -1.16966107321962
C           -1.46639609974652        1.16570127353741       -1.72028211846337
C           -0.14357658268124        1.14339609897846       -1.05686588104581
N            0.50810432769966        0.04843045363297       -0.67860865895001
C            1.88275007295071        0.12599847910266       -0.24463424698241
C            2.86032513435671       -0.27974561298358       -1.36576125154087
C            4.27675601166873       -0.15064563221076       -0.88300133204936
C            4.96510043148946        1.04736674069138       -1.03289910874401
C            6.25902502852394        1.18328823471551       -0.57102503884964
C            6.89150799119415        0.11352440077363        0.06079663494466
O            8.15351081698813        0.12541127267469        0.55960055810269
C            8.99987251358765        1.10649941398361        0.42277089313597
C            6.19856282279489       -1.11744423561233        0.22494689450517
O            6.89383724711295       -2.09536588624546        0.83466119179754
C            6.30948513079896       -3.36983435940152        0.98229750825042
C            4.89881995068544       -1.22275480228537       -0.24864988063894
C           -0.09229246535651       -1.26228625620932       -0.75469837090743
C           -4.21719280860042        2.84867046473004        0.52546342935844
C           -4.84860090337438        2.52733338022419        1.87806329251207
C           -3.89831015812874        4.33895147859516        0.44632197522456
H           -4.69076852266893        0.62766789979959       -1.39624693064224
H           -6.80463367077567       -0.24140361263245       -1.97079674862983
H           -6.96431985483228       -1.74336974228306       -2.91261362509282
H           -5.52012597350717       -0.72446742737215       -3.11836868687996
H           -4.81962544655512       -3.88866511241140        2.51281578744272
H           -5.07306579526034       -5.21040568422958        1.34686113734056
H           -3.44428875839245       -4.52581183988286        1.56522259435497
H           -3.08896665066508       -2.27945496184872        2.23989023548521
H           -2.32521031453448        0.01963376625914        2.10456291818384
H           -3.24989352819931        2.34539045537792       -1.86508073666976
H           -1.89399908703458        3.19988615097813       -1.14087818373960
H           -1.95394633522558        0.19333272435072       -1.67881422620145
H           -1.29573383435697        1.40920053275412       -2.77736804505757
H           -0.92542622463306        1.65054741785042        0.86314291888402
H            0.40534512493217        2.07228167358791       -1.00862470231406
H            2.02444398187669       -0.53285320700698        0.61638216504622
H            2.10794549668493        1.14809735174752        0.06710285036201
H            2.69951646526614        0.37371585232815       -2.22479181684382
H            2.65903421126346       -1.30765424769077       -1.67041996155341
H            4.49504210201170        1.88374254665741       -1.52629915394983
H            6.77388675607367        2.13347991920889       -0.71607585072586
H            8.78167706023038        2.01970995780052       -0.11859629067430
H            7.74972310249973        3.64101288297841       -1.05933513625521
H            9.95405742088232        0.93915272181744        0.89361110318102
H            7.06965225652121       -3.98569377285441        1.45835189386031
H            5.42245963641843       -3.33179057373883        1.62205604375025
H            6.04687570212961       -3.80403216464028        0.01292501920563
H            4.36183049836631       -2.15202858782449       -0.14135882764285
H           -0.25192450160085       -1.56540089210365       -1.79178456171892
H           -1.05319026162712       -1.27209972970633       -0.23393178327350
H            0.56494796711876       -1.98619682020808       -0.27986349339861
H           -4.95435963204193        2.61846037440787       -0.25236392842961
H           -4.15281092711680        2.75877456175794        2.67804527650998
H           -5.12671771505381        1.47824611790829        1.94341969068144
H           -5.74426659757674        3.12774460120187        2.01360914066127
H           -3.13964140394605        4.60216830235358        1.17702223709672
H           -3.56013653039394        4.63062867618938       -0.54461605386199
H           -4.79697480061210        4.90740891749932        0.67125453480826
H           -1.05692068020117        3.01059503479570        2.76544532529033
