72
 energy: -5.317269341875 xtb: 6.6.1 (8d0f1dd)
N           -1.50256576380059        2.79050708127066        2.24307471458456
C           -1.55439766301448        2.15313820700275        1.16180516954457
C           -2.74474958460050        2.06212724452230        0.24969944279151
C           -3.31384462336865        0.65136064795878        0.32877023242394
C           -4.29627858595452        0.24709039271342       -0.57686189646842
C           -4.84172752897904       -1.02142333700046       -0.53213018261523
O           -5.80707877329141       -1.49159933453689       -1.37136957071178
C           -6.37887190587141       -0.61241224432401       -2.30532453599397
C           -4.39727827922788       -1.93947391016541        0.44536462647919
O           -4.99338575742803       -3.16453937948323        0.41332256022488
C           -4.66894602214444       -4.09449660950396        1.41406098350345
C           -3.42579725646197       -1.53830147876323        1.34179595129824
C           -2.89058264012188       -0.25612970462078        1.28261007947947
C           -2.18856078378643        2.30449638952245       -1.17761914424755
C           -1.25881355711802        1.18303351081299       -1.66825195068857
C            0.01082472012997        1.13353073564088       -0.89601173660408
N            0.63494924945000       -0.04980563443035       -0.55923270905789
C            2.00399262096148       -0.04463565979717       -0.15581835667572
C            2.93860887960508       -0.55622910826425       -1.27515994272111
C            4.36327590724392       -0.46159168793027       -0.83270458140851
C            5.07588540624102        0.70569223055636       -1.02774522480545
C            6.37939361032016        0.81381222847013       -0.57972352304664
C            7.00636540041877       -0.22491771070923        0.08298208060190
O            8.29286191855851       -0.12195520050385        0.54094661407669
C            9.06858110528453        1.02046048782755        0.29158017369190
C            6.28596142995841       -1.43059497213867        0.28877322726071
O            6.94823989986678       -2.43113168734167        0.93345370719372
C            6.29088113540339       -3.65548867856759        1.13944986007427
C            4.97705329022535       -1.52248945824731       -0.16421722635695
C           -0.05202538492642       -1.30705317037861       -0.62364500480046
C           -3.87110986429503        3.07842171679206        0.58182907428168
C           -4.49879152159005        2.77763150554506        1.94135397902532
C           -3.39653216200074        4.53008901480303        0.54704614339752
H           -4.64509514736511        0.94368314873472       -1.32149571779199
H           -6.83406941523377        0.25659254720395       -1.81808849243924
H           -7.15417254576920       -1.18888008994211       -2.80784787509555
H           -5.64694899190503       -0.27257130362969       -3.04623546871249
H           -4.89228424514333       -3.70660310495316        2.41357186268998
H           -5.29637395869797       -4.96236562807348        1.21682440818009
H           -3.61562783070736       -4.39262048735278        1.36735125052029
H           -3.07707940662421       -2.21184427249295        2.10877651931093
H           -2.15232924464824        0.03062252739988        2.01602268200607
H           -3.01972822414908        2.39699215405327       -1.87758637710977
H           -1.64036590355520        3.24776536888901       -1.19004285323113
H           -1.79813320284665        0.23719021723493       -1.62576101732850
H           -1.01361283824112        1.38398792000634       -2.71996417533403
H           -0.68833285244982        1.64342042113833        0.67616221409568
H            0.66000167895636        1.99000880149983       -0.96002214453029
H            2.12147713528486       -0.68007481866287        0.73001573888661
H            2.30179466919339        0.97162810799266        0.11407459292508
H            2.77392563420803        0.05986448156105       -2.16104822858628
H            2.67557759863207       -1.58722647486606       -1.51586877158270
H            4.62331771305969        1.54143536232867       -1.53833385512652
H            6.92208426001783        1.72771498306097       -0.75037502049558
H            8.66956556203673        1.92057135410462        0.77210204644914
H            9.21373967321177        1.21595519139732       -0.77674297945888
H           10.03470538060838        0.78887150116781        0.73951190874533
H            7.02173864855985       -4.28783664008550        1.64066042197320
H            5.41008930130912       -3.54583667431675        1.78231871824830
H            5.99266848946927       -4.12544044940220        0.19554068021641
H            4.40672501718808       -2.43102774185008       -0.01661099154746
H           -0.22416275472951       -1.62624599855034       -1.65813291493038
H           -1.01883383466862       -1.24556866873945       -0.11556605542250
H            0.55499178965397       -2.05997966834348       -0.12527449374377
H           -4.64544229014772        2.95746197752244       -0.18555217207011
H           -3.75981548324473        2.90636669829687        2.72506847467347
H           -4.87639961543056        1.75863463801167        1.97672428117198
H           -5.32694086778261        3.45925734018712        2.12247303920849
H           -2.60250680805159        4.68482695390230        1.27107732602226
H           -3.04019014376755        4.81585021249075       -0.43953197888339
H           -4.22635417949052        5.18463784000506        0.80438756027601
H           -0.61298895970033        2.78228371134458        2.73915445426281
