72
 energy: 94.425285164396 xtb: 6.6.1 (8d0f1dd)
N           -1.60597601668676        2.94389537593250        2.34831682025898
C           -1.55409460074792        2.23511508369678        1.31761337642808
C           -2.67699418259581        2.09828671407676        0.32262681472772
C           -3.23886560656262        0.68508794082254        0.38149033133058
C           -4.12701459523839        0.24733841277902       -0.60491228044218
C           -4.68973122183917       -1.01489103638846       -0.56147361719551
O           -5.56698965538061       -1.51699398337290       -1.47366925343844
C           -6.03722701236607       -0.67735018586185       -2.49722398921655
C           -4.36305344480216       -1.89064300610933        0.50025922689251
O           -4.97069441061666       -3.10786007920490        0.46062894525285
C           -4.77918704140673       -3.99196616441217        1.53614068689251
C           -3.48159500614675       -1.45703111350150        1.47318163529538
C           -2.92794737069838       -0.18211861764445        1.41256594010631
C           -2.04705143872425        2.37298807406819       -1.06930891489417
C           -1.17953328001629        1.23066987367521       -1.62761230441180
C            0.09678565201987        1.06138870165738       -0.89214775476414
N            0.62251502776476       -0.12374400974547       -0.54120629761754
C            1.99130178559755       -0.21439019182771       -0.09650453434225
C            2.92437741784030       -0.72139784149338       -1.21104935463429
C            4.32066015760551       -0.87041527782413       -0.67163871669582
C            5.15731515676322        0.23200374040367       -0.65618012343478
C            6.44683575031185        0.09407358179114       -0.14014965682435
C            6.79559551341595       -1.11400633498220        0.33941597501212
O            8.09692466580601        2.66326291768622       -0.12989364207985
C            9.42427471357965        2.87062944494247       -0.20012827942981
C            6.01149831090862       -2.24686482573485        0.36972378721438
O            6.52789207664324       -3.39452886415775        0.88234061104215
C            5.72032930734710       -4.54590575699047        0.90191159480699
C            4.73216993233350       -2.09604757255685       -0.15876689409183
C           -0.11182065306258       -1.35569898659888       -0.67675674747200
C           -3.84994520269707        3.09057358715078        0.56562176757425
C           -4.55372347372352        2.81519330594048        1.89294995945859
C           -3.41464577103961        4.55322463628694        0.50784932776415
H           -4.38771134196270        0.91393838689336       -1.41074719918425
H           -6.54141160568774        0.20743205119179       -2.09432619511312
H           -6.75479053876147       -1.27494373080165       -3.05766720309586
H           -5.23113003575529       -0.36331314509657       -3.17000371465306
H           -5.10176509516761       -3.55106331202564        2.48512848555026
H           -5.39861820888532       -4.85964261993355        1.31383051430866
H           -3.73423010893554       -4.30942121996018        1.62121564050884
H           -3.22030780025937       -2.09810763278302        2.30039515286581
H           -2.26262790240721        0.13145563815051        2.20198012927232
H           -2.84527799812718        2.58056275635479       -1.78308424306358
H           -1.42847798840527        3.26842301367305       -0.99638952625156
H           -1.75158812281539        0.30429853370702       -1.63443452328405
H           -0.96329251102174        1.48593750650443       -2.67716376770331
H           -0.66576873686977        1.65014651317426        1.00693612868314
H            0.77132796890102        1.90074648091447       -0.83343061318689
H            2.05646366520713       -0.89564184583059        0.76127133313364
H            2.33073076448939        0.77160259426491        0.22655769697893
H            2.91117756133667       -0.00715325106648       -2.03852268533620
H            2.56055743234310       -1.68222121223768       -1.57526171033307
H            4.83282911520113        1.18117997636442       -1.05033103321635
H            7.12364516454364        0.96709514726645       -0.10985610684100
H            9.65389862569544        3.92725204754710        0.06154397244337
H            9.81835003143502        2.73581334033312       -1.23322166073437
H            9.97275846971536        2.20360046640812        0.50063340147137
H            6.32565546561265       -5.33979748259048        1.34367035306613
H            4.82224212425551       -4.41260403568910        1.51951569286198
H            5.42337864200657       -4.84937878647397       -0.10752998186000
H            4.05072577163584       -2.93162997414038       -0.18876590437202
H           -0.26938219345626       -1.62236058116351       -1.72593619297931
H           -1.08411647028891       -1.27597241278641       -0.18494831543949
H            0.44659628669139       -2.15850725942962       -0.19948850338577
H           -4.57362909278380        2.92004501490141       -0.24093253397204
H           -3.86753767664309        2.98753016438628        2.71483174562911
H           -4.91040710455663        1.78916938208803        1.93884986494718
H           -5.40659706102278        3.48131733192515        2.00019402261000
H           -2.64911215459842        4.74681045887740        1.25228110273021
H           -3.03429491900890        4.82179661240904       -0.47397562011271
H           -4.26931773627333        5.19054827589739        0.72131409301137
H           -0.75289309538258        2.95944287477510        2.90161050471551
