72
 energy: 94.094005143846 xtb: 6.6.1 (8d0f1dd)
N           -1.58944518460272        2.93950648866630        2.33775683670149
C           -1.54904344155865        2.21895943250144        1.31765015286711
C           -2.67036524734639        2.09160006529115        0.32472351885365
C           -3.23469582473477        0.67951972202202        0.38044966459306
C           -4.12693417887632        0.24896647955595       -0.60580741512467
C           -4.69299183393312       -1.01085765407949       -0.56164108009966
O           -5.56693891849207       -1.50856732953825       -1.47680411651562
C           -6.03868771058139       -0.66688489177418       -2.49901214202053
C           -4.36448053328728       -1.88988695568925        0.49801609812236
O           -4.97074951179665       -3.10519245574075        0.45871956259584
C           -4.77576667899262       -3.99233887393645        1.53132368195725
C           -3.48267146276843       -1.46033997027960        1.47163714242646
C           -2.92756097500035       -0.18661703206715        1.41391429041564
C           -2.02864110495733        2.37386321366845       -1.05952691351986
C           -1.17699209341834        1.22504409908649       -1.62466158150893
C            0.10670341271023        1.05113563509032       -0.91178610883061
N            0.61081972418281       -0.12455806079966       -0.51574027508639
C            1.98409657360286       -0.22158831932967       -0.08786279813087
C            2.90732457546185       -0.73722220925492       -1.20461950194286
C            4.30906866077642       -0.86310417848877       -0.67609213202529
C            5.11812545673167        0.26292504253143       -0.68429568651261
C            6.41298155903674        0.14677749142844       -0.18756901698680
C            6.79566767103125       -1.05019365270634        0.27961552648800
O            8.11230183077418        2.45416787223602        0.07201437327165
C            9.37926921028498        2.77973476665718       -0.16227821160266
C            6.05323492895314       -2.20132674049451        0.34660667060542
O            6.58417462697402       -3.32443844692747        0.88181395553038
C            5.77048559464073       -4.46687307427469        0.89727913139440
C            4.75309903960242       -2.07886690677479       -0.16141048095438
C           -0.12077971024745       -1.35546784045739       -0.66913673808947
C           -3.84063561620680        3.08805934790105        0.56979877734204
C           -4.55000847401522        2.81314717430982        1.89445040947172
C           -3.41048714030507        4.55238170611700        0.50928442148113
H           -4.38954934296233        0.91749909578797       -1.40980160432170
H           -6.54349961510973        0.21820436822793       -2.09766006365833
H           -6.75607967747521       -1.26325372699853       -3.06040780740710
H           -5.23223225578004       -0.35377358877492       -3.17001744437977
H           -5.09523252590795       -3.55408503760341        2.48218571981069
H           -5.39893264769467       -4.85683415933430        1.30893050442102
H           -3.73007665512823       -4.30978081652272        1.61002464059156
H           -3.22178478089285       -2.10290203333991        2.29725694450848
H           -2.27181639308498        0.12547910244514        2.21285293284941
H           -2.82100362068040        2.58178674029126       -1.77633459353512
H           -1.41002164331985        3.26991109352968       -0.97875768481972
H           -1.76125935497890        0.30730738444453       -1.63635808126061
H           -0.94800065181271        1.48715435897846       -2.66613169687981
H           -0.66073356992723        1.64683343580727        0.97277970259068
H            0.74835709703738        1.90782876115682       -0.81657897847532
H            2.02618899834109       -0.90193673025245        0.76601628963336
H            2.34295921065169        0.75817776055964        0.23559615620291
H            2.89905508902232       -0.02619138303577       -2.03320352370335
H            2.55168097939559       -1.70346691848199       -1.56612255483327
H            4.77188009656044        1.20381442300997       -1.07794474168052
H            7.10448169164316        1.02137254384036       -0.17488285489619
H            9.44165503191670        3.88626318730305        0.05700069998085
H            9.69718159125743        2.67459841397722       -1.22173133326159
H           10.11400451521142        2.28470128339511        0.47869389204222
H            6.37230428364241       -5.25688621019921        1.33722675261195
H            4.86910120801631       -4.32857283228122        1.50803492892466
H            5.46926812228316       -4.77123687187514       -0.11430325061476
H            4.08362376192891       -2.93529757140272       -0.16995201254010
H           -0.26926491667250       -1.60980419347999       -1.72179860607000
H           -1.09491582719631       -1.28110106904099       -0.18152409173763
H            0.44300284068550       -2.15537380474020       -0.19761368097572
H           -4.56331604436094        2.91504817224492       -0.23656817185898
H           -3.87576971333377        2.98625549624567        2.72625582747000
H           -4.91170779914466        1.78896076980199        1.93891352786094
H           -5.40232884111252        3.48062251629083        1.99481248535949
H           -2.64856065386069        4.75647324017910        1.25475935019979
H           -3.03347629269464        4.82371078961966       -0.47358349323304
H           -4.26969706371730        5.18303085568941        0.72243665209038
H           -0.76332349206478        2.99097082292593        2.92733301158969
