72
 energy: 1.681680821362 xtb: 6.6.1 (8d0f1dd)
N           -1.52677899998270        2.83239986967986        2.25908929159827
C           -1.56180235502571        2.15920776228628        1.19859177160122
C           -2.73771771663434        2.06712625095604        0.26249412685357
C           -3.30874628848949        0.65775195515140        0.33628640337110
C           -4.27985177459107        0.24831129945928       -0.57843463020468
C           -4.82674367541047       -1.02022821377600       -0.53471953802296
O           -5.78178683517849       -1.49584570247411       -1.38453385000510
C           -6.34302612926116       -0.61868655401749       -2.32626465058054
C           -4.39508406515297       -1.93413221149309        0.45128154469693
O           -4.99502850772857       -3.15826596707905        0.42056864643319
C           -4.68042843942932       -4.08385342120588        1.42769153113314
C           -3.43293171133201       -1.52910923898658        1.35592899184877
C           -2.89754080759808       -0.24717798408527        1.29734785331865
C           -2.17050109203601        2.31355362606858       -1.16136226380728
C           -1.24539473743942        1.19538659413868       -1.67621794703910
C            0.03523921204898        1.13993211445971       -0.91520777991876
N            0.63689423546488       -0.05971554902366       -0.54979878501570
C            2.00828576518712       -0.07296895766063       -0.14927736968757
C            2.94586418022434       -0.59016700444419       -1.26680990252999
C            4.37135077837868       -0.51797808520467       -0.82000552858745
C            5.07284177269671        0.65654994642960       -0.99730963782706
C            6.36436308631299        0.75667042716169       -0.53501035985362
C            7.03400316847948       -0.25882256993235        0.12612101417340
O            8.32186194303170        0.06471062974535        0.56332899235191
C            9.06648404175552        1.20358513578774        0.23227497051340
C            6.32417412401803       -1.48938139009707        0.30673532991665
O            6.93925445274238       -2.52754748216495        0.93759844210876
C            6.23982311201090       -3.73709409446938        1.11043362601132
C            5.00707034244162       -1.57745262416591       -0.16400085267649
C           -0.05678380467898       -1.31627875504103       -0.62822595058476
C           -3.87408024963337        3.07911541866081        0.57686636451720
C           -4.50965128630086        2.78275314719300        1.93418382682295
C           -3.40287806714855        4.53144890243457        0.54149159474560
H           -4.61923302416761        0.94096474254526       -1.33092587403782
H           -6.80256116618691        0.25237237922583       -1.84652624682559
H           -7.11265332616421       -1.19523574651851       -2.83756873117620
H           -5.60149589764330       -0.28045376991768       -3.05799165610727
H           -4.91316648072656       -3.69010912135408        2.42266931453584
H           -5.30609556206568       -4.95304040880022        1.22985761532777
H           -3.62653649745447       -4.38216797482277        1.39338832715652
H           -3.09175888577843       -2.19952042487816        2.12909848070144
H           -2.16617030420739        0.04379839466588        2.03606569326795
H           -3.00238968268001        2.42550961579551       -1.86007622619478
H           -1.61367027617898        3.25057307460245       -1.16341131863537
H           -1.77970702469310        0.24737311863173       -1.62959443931171
H           -1.03308821904864        1.40036578403582       -2.73785100061826
H           -0.69422474316450        1.62936251415685        0.75539897674030
H            0.69778701817678        1.98377048100968       -0.98868822681407
H            2.12862442209840       -0.71288199547490        0.73576480458077
H            2.30478091862487        0.94227063019761        0.12255484697250
H            2.79097107193985        0.04295665106421       -2.14320601497250
H            2.66524266576212       -1.61236688224659       -1.52403233023224
H            4.62082437144410        1.50086379685720       -1.49077230192488
H            6.91279099410043        1.67034325121979       -0.67170060443653
H            8.69859390700482        2.13555334124860        0.67948939902112
H            9.23104138555538        1.36621388611684       -0.83949502557449
H           10.03269892468578        0.98265398445735        0.69168334427739
H            6.95017637902621       -4.39491084972878        1.60834461515612
H            5.35397098538775       -3.62284877619848        1.74655825332098
H            5.93589874590617       -4.18629542123732        0.15754748781953
H            4.43231977590802       -2.49252084050362       -0.03621784852142
H           -0.22703177882498       -1.63302836741616       -1.66490943999177
H           -1.02702688843468       -1.25176374414842       -0.12690153408884
H            0.54039916268310       -2.07750792726706       -0.12787285218990
H           -4.64180748086695        2.95390519268497       -0.19734914750584
H           -3.77161568306777        2.91724636407858        2.71671260248882
H           -4.88387979348528        1.76259966926646        1.97227492615664
H           -5.34070087117446        3.46305290905850        2.11097662878185
H           -2.61178893006299        4.68284206118910        1.26770582869381
H           -3.04014348800920        4.81232236943777       -0.44403184967595
H           -4.23271516563326        5.18808216434548        0.79476372836772
H           -0.65023732726134        2.81469750438082        2.77380420526104
