72
 energy: 100.354290281938 xtb: 6.6.1 (8d0f1dd)
N           -1.61846421525882        3.02392995570250        2.31003713832945
C           -1.57858289553059        2.22021771621279        1.34707377428371
C           -2.68146457568844        2.08994076493055        0.32517336704710
C           -3.25700941755261        0.68348879176724        0.37579443530742
C           -4.16883973180160        0.25455425151028       -0.59449307321082
C           -4.72936819362720       -1.00941266548249       -0.55326798578464
O           -5.62665570569028       -1.50430207112825       -1.45119616274800
C           -6.12898847767174       -0.65104809987309       -2.44797298612671
C           -4.37463200326626       -1.89794971952997        0.48697368198192
O           -4.97823483359419       -3.11560085682675        0.45011946102289
C           -4.74610191072744       -4.01749511767578        1.50265208678606
C           -3.47180404831331       -1.47516844557418        1.44230157013715
C           -2.92783774995665       -0.19688904473042        1.38714005535517
C           -2.05398636616779        2.36123094184880       -1.06729892146445
C           -1.18053904501661        1.23394995250344       -1.66165881012568
C            0.14127808787962        1.05022107652715       -1.02117582711210
N            0.61516209177307       -0.11492549068248       -0.53981198673789
C            1.99261775403637       -0.21972656272323       -0.11507123417921
C            2.91401808382312       -0.74922225841930       -1.22743351882435
C            4.33149955010039       -0.80964668438029       -0.73281199457370
C            5.07097185691343        0.35695031010609       -0.78597412738420
C            6.35872878449555        0.29471513569903       -0.29277770284637
C            6.84705227800795       -0.84097220962662        0.19953408112590
O            8.25194536266710        1.74889935551429        0.37162431027915
C            9.28524625028368        2.40850206293486       -0.08832207118075
C            6.16947598453002       -2.01992101082858        0.32936620399559
O            6.71390092818137       -3.10962093390848        0.90496126380434
C            5.90607241988958       -4.25417998580154        0.95314565551740
C            4.86037058495193       -1.96919242404927       -0.16890381465795
C           -0.11078769317982       -1.35663738962270       -0.67239584685811
C           -3.85413992970373        3.08853763613540        0.56938548409495
C           -4.55308356325078        2.81053342154069        1.90227982284379
C           -3.41883998812573        4.55097014193912        0.51251540418581
H           -4.45634025990346        0.92653200868984       -1.38728291851406
H           -6.61901636836186        0.23077516026496       -2.02100090812377
H           -6.86340775483954       -1.23791216666822       -2.99852491756913
H           -5.33965409223718       -0.32900823072029       -3.13464169505125
H           -5.03867578206529       -3.59202370351209        2.46804542414994
H           -5.36872919566298       -4.88604300510788        1.29237257799393
H           -3.69585065448492       -4.32674925331564        1.54627497181426
H           -3.18329962037944       -2.12987955887424        2.24991688664092
H           -2.24993653038686        0.11101691406776        2.16617400433909
H           -2.86693247610654        2.56359350178744       -1.77428052107431
H           -1.45527120653562        3.26623957414917       -1.00951421848439
H           -1.74730005337437        0.30400800631791       -1.63674482882328
H           -1.01031887329626        1.50177770318468       -2.71086797771285
H           -0.71377764285005        1.56761007837436        1.14634272011012
H            0.80868937652714        1.88762256704984       -0.91751335794748
H            2.04625728438150       -0.88762672518093        0.75028964568157
H            2.33625724721912        0.76942661088858        0.19517122021696
H            2.87778331880756       -0.04688340388842       -2.06240915021211
H            2.56104664959905       -1.72153797952822       -1.56970816309998
H            4.67495943332278        1.27214944319920       -1.18671536995228
H            6.99832087700794        1.22176477101060       -0.25452000905924
H            9.12123188581432        3.48480067018109        0.12628234232881
H            9.52223240699957        2.30681649190203       -1.15979476230270
H           10.18414026465808        2.09899597527339        0.45989766631383
H            6.52862205822170       -5.01098827382287        1.41876784014268
H            5.00772020460390       -4.11659501644501        1.56780615829521
H            5.59595142100983       -4.59946992695470       -0.03916014729405
H            4.24686921600621       -2.86574422188132       -0.12913973866257
H           -0.26188507098903       -1.62421880819433       -1.72308453299017
H           -1.08577553393837       -1.28026657247875       -0.18511585235119
H            0.45236570712360       -2.15174780377735       -0.18994772162169
H           -4.58455332702735        2.92163252722891       -0.23419294643615
H           -3.85734694777268        2.97218435601446        2.71826810318018
H           -4.91651115168159        1.78608920653491        1.94497587735828
H           -5.40096635639447        3.48281571994688        2.02833686276960
H           -2.64769424164420        4.73726758169276        1.25221917918590
H           -3.04274752313118        4.82066074434182       -0.47158572952506
H           -4.26841911278582        5.19332948841282        0.73811708809398
H           -0.81043421588190        3.02153078099531        2.92956086048552
