72
 energy: 95.240797438094 xtb: 6.6.1 (8d0f1dd)
N           -1.59056176706607        2.96785338034797        2.32459093252362
C           -1.55237240091414        2.21845852226274        1.32624948534545
C           -2.66935928994678        2.09035979924594        0.32698105020184
C           -3.23765420257537        0.68009729740203        0.37888681969284
C           -4.13581469354245        0.25096284518125       -0.60322565921354
C           -4.70128050172531       -1.00950501384724       -0.55945251774938
O           -5.57850941490906       -1.50688823516316       -1.47113518438005
C           -6.05821801750541       -0.66311540871084       -2.48738683315663
C           -4.36698990150182       -1.88934625338973        0.49732388431902
O           -4.97045772025608       -3.10504214121599        0.45816462748714
C           -4.76863507410122       -3.99658077487942        1.52632993381931
C           -3.48252553882161       -1.46090691057024        1.46844316924191
C           -2.93071605077265       -0.18624679058138        1.41243902003983
C           -2.02493913813482        2.37654397259149       -1.05446228793357
C           -1.17745004136492        1.22804904529881       -1.62711467245953
C            0.11545669980539        1.04576430887593       -0.93457268569048
N            0.60562612831105       -0.12612738506934       -0.50719203085050
C            1.98365730566941       -0.22985914823621       -0.08566373437447
C            2.89971195394228       -0.74621162505756       -1.20716278591747
C            4.30924924034701       -0.85881009773216       -0.69019526199266
C            5.10214227396034        0.27740830591300       -0.70478631647651
C            6.39534462304119        0.17792464164672       -0.20426153060831
C            6.80689949238596       -1.00374996947726        0.27479109653579
O            8.15273815569905        2.33381367613479        0.16429385985973
C            9.38465377013105        2.70977556874716       -0.14256214132351
C            6.08031034698108       -2.16420536004479        0.34540392085373
O            6.60960288093861       -3.28015745031715        0.88455707048588
C            5.79680747012012       -4.42174110613260        0.91082282345443
C            4.77891039403107       -2.06151912114503       -0.16514985038639
C           -0.12459300377159       -1.35845637596646       -0.66693831546634
C           -3.84126583137949        3.08819560462505        0.56991567225793
C           -4.55414344242604        2.81356891178733        1.89392704662315
C           -3.41324530123549        4.55389234730184        0.50895945486612
H           -4.40428889610465        0.91982233695338       -1.40509385786870
H           -6.56038413520277        0.22117504571594       -2.08092736658138
H           -6.77932943274923       -1.25828444478854       -3.04525537926093
H           -5.25564361870152       -0.34859193707919       -3.16197403188332
H           -5.08247744643409       -3.56096304926421        2.48025745292891
H           -5.39219346617829       -4.86170057959341        1.30693167884938
H           -3.72236504915162       -4.31271567760662        1.59681331942294
H           -3.21382248019372       -2.10759989335571        2.28762871616608
H           -2.27244752234421        0.12599518104168        2.20800728016760
H           -2.82047341661547        2.58660709325195       -1.76717128051568
H           -1.41011404235146        3.27461318167179       -0.97458152892978
H           -1.76584605985041        0.31160006443643       -1.63266094701345
H           -0.95228554629318        1.49564764415639       -2.66540821850494
H           -0.66998603080978        1.62475164124890        1.01224333599882
H            0.76160859643947        1.89966044506274       -0.83864214190726
H            2.03514657394131       -0.90861677239881        0.76919788094031
H            2.34954753114347        0.75036695323016        0.22982008357784
H            2.88905544806442       -0.03515505419355       -2.03614209048780
H            2.54368732173781       -1.71315438500165       -1.56759454002085
H            4.74296024736508        1.21301207862739       -1.09733421701372
H            7.08087335108358        1.05831923348576       -0.19871837932357
H            9.35858117440668        3.82287110671965        0.04522825944356
H            9.65649487845001        2.59897470437635       -1.21923718850994
H           10.19798617567528        2.29839221076276        0.45892616094503
H            6.40492440487153       -5.20181537662269        1.35677810992764
H            4.89835899221530       -4.28258433936686        1.52458512297715
H            5.49252506452774       -4.73719200294168       -0.09321287818002
H            4.12218402335323       -2.92919950200677       -0.16407514533517
H           -0.26875766678294       -1.60390692163093       -1.72218093235637
H           -1.10073782396583       -1.28274499724575       -0.18347899007084
H            0.43777358283716       -2.16186296091385       -0.19697357114494
H           -4.56349610835281        2.91361137344168       -0.23680999458493
H           -3.87651804508396        2.98629761681432        2.72238718588781
H           -4.91636018102835        1.78963328887512        1.93887162859226
H           -5.40538074554832        3.48243118414314        2.00014576988014
H           -2.65068689468248        4.75393024944749        1.25465938560944
H           -3.03538526270949        4.82564833268895       -0.47345129475090
H           -4.27071728914448        5.18683905494849        0.72329747378940
H           -0.77862654153038        3.01297799973820        2.93439414915624
