72
 energy: 110.273872053585 xtb: 6.6.1 (8d0f1dd)
N           -1.62465814348553        2.97468763548238        2.31057788418400
C           -1.59274798678832        2.19649371258642        1.32339931019505
C           -2.70540725010207        2.08357501626444        0.31171860603775
C           -3.27873731020482        0.67641307789723        0.36379207944398
C           -4.20800050201320        0.25331905635386       -0.58942937023214
C           -4.76356081284813       -1.01303641828645       -0.54602222196867
O           -5.67748476824711       -1.50557182050590       -1.43197775680600
C           -6.20056665945328       -0.64226155581950       -2.40749235443945
C           -4.38379006275733       -1.90968431088869        0.47628824938311
O           -4.98574363913612       -3.12930291197740        0.44129443293903
C           -4.72266814862400       -4.03837477573978        1.47872013622799
C           -3.45908289418620       -1.49496878026749        1.41520831387325
C           -2.92175719504190       -0.21468197834927        1.35846974291268
C           -2.09127383118472        2.34583810947717       -1.09129342984128
C           -1.19090976745206        1.22484888941010       -1.67353728314242
C            0.13674175502324        1.04424413124887       -1.00431798211152
N            0.63206443911919       -0.12448572560701       -0.52322409463568
C            2.01072341322393       -0.18432379818677       -0.12033614344077
C            2.93659102332657       -0.71201854204482       -1.24043150492216
C            4.35538154409692       -0.73515963238692       -0.76224072166397
C            5.05646598916624        0.44362332371272       -0.85870261698867
C            6.33466126312052        0.43714126022677       -0.36519475664170
C            6.91888260897228       -0.65008449117220        0.18952836874328
O            8.32144634025168        1.24229833231000        0.54823524214300
C            9.22426762499981        2.00860918321371        0.01709573671333
C            6.26303808061694       -1.85121407920555        0.33139432611659
O            6.81507966819146       -2.92831432292459        0.92811668474653
C            6.02225289165151       -4.08417950516063        1.00445612025518
C            4.94550124658502       -1.85293440163449       -0.16832940946231
C           -0.08862936259059       -1.36341190405291       -0.65378513366684
C           -3.86653669488903        3.08527740562824        0.56917325992539
C           -4.54384139112315        2.80042241200534        1.91171539077715
C           -3.41732800327532        4.54422046125082        0.52145798737677
H           -4.51167580551817        0.93187350852166       -1.37013055842689
H           -6.67953293342582        0.23611105991816       -1.96121275022668
H           -6.94826280597804       -1.22138603910225       -2.94813962820304
H           -5.42681238449953       -0.31358095373789       -3.10886753008339
H           -4.99514699709932       -3.62366897015659        2.45493311186570
H           -5.34434781180045       -4.90988403139005        1.27728889778498
H           -3.66995868458340       -4.34345461983699        1.49618850432331
H           -3.14961761307893       -2.15264100518486        2.21190239853654
H           -2.22259628010621        0.09160162659162        2.12155060262172
H           -2.91932564307145        2.52351469556970       -1.79063711583969
H           -1.50898191371287        3.26460408942790       -1.05762135192398
H           -1.72986719561074        0.28093207993308       -1.64575514458641
H           -1.04860099101716        1.49029867086518       -2.73747440516215
H           -0.72435041325617        1.57143246577444        1.07728745067364
H            0.82585161814450        1.88171030251023       -1.00563959149093
H            2.11016084652648       -0.84294319496418        0.75245913304367
H            2.32352402643116        0.82139319547067        0.17011901081406
H            2.85309778838663       -0.02161032862265       -2.08513277368221
H            2.60475614289331       -1.69903277487659       -1.55925534034724
H            4.64068814383922        1.33944554182211       -1.28640226861029
H            6.87342262744358        1.36404057595120       -0.38096464766589
H            8.95441188198543        3.04604294871103        0.29416258601475
H            9.38518434431417        1.98977725351029       -1.07722748692456
H           10.15006626640082        1.76557130374149        0.52640409952492
H            6.66799744233806       -4.81375495900105        1.48409167663196
H            5.12304783374354       -3.94647767884141        1.61920633312767
H            5.71130511532284       -4.45375535708805        0.01788040748721
H            4.36189863315942       -2.76863578089042       -0.10239360590780
H           -0.24771939387452       -1.64532710896960       -1.70277439121166
H           -1.06330651625225       -1.28045612519604       -0.16680813341175
H            0.47744637926240       -2.15117394857152       -0.15856680137600
H           -4.60752161700573        2.93169279504683       -0.22651604299306
H           -3.82845055404318        2.95670944235644        2.70970010025334
H           -4.90965201069975        1.77730363646515        1.95668454189437
H           -5.38542325783649        3.47583341352506        2.05819792165139
H           -2.63859625518112        4.71500806038192        1.25659815224834
H           -3.04319126680975        4.81400800961721       -0.46344796042586
H           -4.25684044413499        5.19472244799730        0.75652945855349
H           -0.77184798792080        2.95900410370988        2.87124678398645
