72
 energy: 104.462544335574 xtb: 6.6.1 (8d0f1dd)
N           -1.61919118737016        2.95726247999096        2.30678310309711
C           -1.58590439636961        2.19871927846834        1.30889861123550
C           -2.70963744603590        2.08293316648224        0.30648303317163
C           -3.28211805159782        0.67468462247975        0.36031176064308
C           -4.21697313767932        0.25303877673334       -0.58809381457810
C           -4.77175902139585       -1.01366464276005       -0.54419208979799
O           -5.69049544582538       -1.50499074490946       -1.42629310719080
C           -6.21834494534175       -0.63959562530803       -2.39703066799273
C           -4.38578053233126       -1.91254225148299        0.47364848271746
O           -4.98745722975596       -3.13270962941534        0.43894772727352
C           -4.71724251491604       -4.04367775812763        1.47236588852915
C           -3.45592033924448       -1.49918340771005        1.40812316506885
C           -2.91876833408864       -0.21868464141844        1.35088286864776
C           -2.10151691228671        2.34352577316999       -1.09933344122839
C           -1.19725292301687        1.22109762492503       -1.67299987183920
C            0.13023515260436        1.05818993336700       -0.99536322221048
N            0.63564898485060       -0.11854677248814       -0.51957996099777
C            2.01370908709162       -0.17263788946616       -0.12118912584629
C            2.93919528009352       -0.70079395079934       -1.24291838306048
C            4.35899087173171       -0.70948403342097       -0.76891759655702
C            5.05038651999256        0.46919856960315       -0.88055695799147
C            6.33133305042423        0.50145239862054       -0.39900916814268
C            6.96516633825681       -0.56455381556857        0.18323637678885
O            8.35226271651633        1.04524888933658        0.65460391424377
C            9.18233123951654        1.87718825836273        0.05009088407482
C            6.29682050959397       -1.78447333242116        0.33354272344165
O            6.83868146057200       -2.87177145428788        0.93163690751926
C            6.05166359742239       -4.03649720532442        1.01786032799415
C            4.97431709490876       -1.81015166919713       -0.16658333667318
C           -0.08397054475604       -1.35740649333504       -0.65066421768984
C           -3.86874941543417        3.08425043188636        0.56910298386838
C           -4.54031915852967        2.79810453212918        1.91374171740798
C           -3.41569727072260        4.54237644341371        0.52315783607710
H           -4.52520920007837        0.93337027869229       -1.36537951640435
H           -6.69500308640247        0.23778879214011       -1.94656949901252
H           -6.96898431863395       -1.21772128297507       -2.93437299557051
H           -5.44863342573518       -0.30968438030550       -3.10229926105334
H           -4.98492890805730       -3.63177299039799        2.45101883802157
H           -5.33884252285251       -4.91547040618788        1.27236148884781
H           -3.66432339497807       -4.34801457936091        1.48343125358150
H           -3.14197419531559       -2.15824812952114        2.20199541101867
H           -2.21531329733009        0.08591270662188        2.11089320038762
H           -2.93201707009312        2.51166969779955       -1.79717425638048
H           -1.52225194388975        3.26463150038890       -1.07122204397089
H           -1.73050312069653        0.27299752145421       -1.64611113791760
H           -1.06142957090299        1.48239356288852       -2.74133497952890
H           -0.71922846039249        1.58503823218508        1.03769572360775
H            0.81953693289055        1.89482330303148       -1.02499548291950
H            2.12534836160985       -0.83223974902813        0.75288630416026
H            2.32378491859281        0.83556639655582        0.16508775277740
H            2.84687882511660       -0.01505808044768       -2.09095964506857
H            2.61501109489273       -1.69242403009623       -1.55609181743311
H            4.62682970598916        1.35833744633794       -1.31340483785482
H            6.84930751946478        1.42388950305783       -0.44300670616620
H            8.88182551855805        2.91127411849923        0.33399279123393
H            9.33221016731763        1.90377915886835       -1.04384458004252
H           10.13764590152120        1.67356343512389        0.52418534317114
H            6.70280815971122       -4.76076984954614        1.50104425655138
H            5.15283384969709       -3.90477288518494        1.63492391577450
H            5.74074762023799       -4.41932554201357        0.03548864746941
H            4.39392211560671       -2.73130775908154       -0.09331580674354
H           -0.24492401765235       -1.64768037205058       -1.69788413344822
H           -1.05790921307717       -1.27773698504704       -0.16167840020280
H            0.48554525724936       -2.14164635645322       -0.15438259072171
H           -4.61282002178657        2.93430528057625       -0.22452993785908
H           -3.82040008323884        2.95333453135883        2.70711533639702
H           -4.90708474994341        1.77537053811514        1.95958737094561
H           -5.38024579643851        3.47425402351185        2.06465425044602
H           -2.63607093151805        4.70936025546123        1.25749864304796
H           -3.04306219784769        4.81215417514562       -0.46202253078787
H           -4.25318884203460        5.19427348809709        0.76058097207734
H           -0.76083941988835        2.94294451320660        2.85462683040735
