72
 energy: 97.867056923455 xtb: 6.6.1 (8d0f1dd)
N           -1.61423204229683        2.98999898334419        2.32990120896245
C           -1.56208851808423        2.23643522328411        1.33622068010102
C           -2.67453356058455        2.09436011027765        0.33082427943591
C           -3.24755632907805        0.68450823909418        0.37952757393989
C           -4.14982067580685        0.25450116057947       -0.59832705389678
C           -4.71247720648764       -1.00806824178787       -0.55639141803211
O           -5.60179956652658       -1.50348003884472       -1.45980658721454
C           -6.09303874455586       -0.65597138432490       -2.46764992139178
C           -4.37059416336127       -1.89238046608396        0.49294640490181
O           -4.97390748029966       -3.10891717358746        0.45410612975500
C           -4.75775322628672       -4.00656231108661        1.51413183851485
C           -3.47786301820441       -1.46598901123952        1.45639749933711
C           -2.93074325363133       -0.18861749601136        1.40133684933000
C           -2.03691330961957        2.36665005240717       -1.05777323482495
C           -1.17620716282373        1.22724566920071       -1.64430696777745
C            0.13460321126183        1.03946583548710       -0.98454380775859
N            0.61235693304679       -0.12466689878661       -0.51976457938775
C            1.98856873041427       -0.22908962627169       -0.10060236071048
C            2.90348435530626       -0.76131195958841       -1.21544950109720
C            4.32041646813467       -0.83883438861956       -0.71437699814445
C            5.08539681815157        0.31692324191390       -0.74091938838764
C            6.37798954379978        0.23274350477134       -0.24677727671501
C            6.82245377739776       -0.92305845231471        0.25370454229364
O            8.20203939586566        2.07513410803419        0.31468146589032
C            9.36509641024424        2.54788486073213       -0.08378643214832
C            6.12382324257570       -2.09600236754014        0.33405001235379
O            6.66013614114743       -3.19861746193340        0.89226431883330
C            5.84703714369947       -4.33948836710437        0.92854261776287
C            4.81784787942305       -2.01774536468514       -0.16843435835189
C           -0.11843222614831       -1.35792548032916       -0.66904880749733
C           -3.84844268207493        3.09120697655425        0.57045237424144
C           -4.55656599543057        2.81566010557324        1.89758427324362
C           -3.41639438075453        4.55439160882126        0.51010876549297
H           -4.42937519185123        0.92395452118231       -1.39621783781618
H           -6.58896165637411        0.22748631746768       -2.05107669627481
H           -6.82080533817475       -1.24629891448896       -3.02342782058989
H           -5.29637467800184       -0.33735747667400       -3.14754879903444
H           -5.06062581228542       -3.57614528703295        2.47404211689461
H           -5.38068011647177       -4.87387952076814        1.30000033525935
H           -3.70912061025349       -4.31873923272382        1.57143225562593
H           -3.19935608973466       -2.11819143202728        2.26944240994029
H           -2.26342973533135        0.12209173069678        2.18781113060379
H           -2.84097567720910        2.57225529416543       -1.76899816825692
H           -1.42811614996554        3.26471536139495       -0.98894055392788
H           -1.75277053871561        0.30487066095444       -1.63963087956478
H           -0.98225913166147        1.50131438493338       -2.68677436004253
H           -0.69474567915194        1.60167206658328        1.07953559850329
H            0.78226314176418        1.89623968500091       -0.89146308148136
H            2.04068389469622       -0.90511341603976        0.76164758593800
H            2.34889175281122        0.75438443985613        0.21050531697070
H            2.88632373431418       -0.05630269803671       -2.04785645012425
H            2.55306639772190       -1.73283912053128       -1.56947448172171
H            4.70924789104381        1.24193721623598       -1.13836664789864
H            7.03571831823218        1.13190211426406       -0.20203857558392
H            9.26375981862722        3.64672924730510        0.11380355818745
H            9.56437296282113        2.45157862578287       -1.16785759907265
H           10.26604758352101        2.21491605690227        0.45620962202345
H            6.46074462890001       -5.10910692290854        1.38599607895115
H            4.94909893356049       -4.20356936623473        1.54369069130357
H            5.53743746238151       -4.67431465039979       -0.06679367683045
H            4.18756466944298       -2.90267805791445       -0.15633570061022
H           -0.26431462808102       -1.61433069337095       -1.72183773386185
H           -1.09608150174631       -1.28158376000425       -0.18639339056960
H            0.43889164661728       -2.16200914203772       -0.19424862771542
H           -4.57388740326295        2.91806439441206       -0.23545417980274
H           -3.86988136188296        2.98084380859429        2.72059040707849
H           -4.91933029146871        1.79114421961543        1.94042000244852
H           -5.40629786755562        3.48622525491326        2.01344806581111
H           -2.65016829135574        4.74732287610001        1.25343956948886
H           -3.04054705844446        4.82537818609082       -0.47336388424463
H           -4.26966889237553        5.19229116567077        0.73040534584133
H           -0.79459920172801        3.01718939698432        2.92839344998978
