72
 energy: 92.897457363214 xtb: 6.6.1 (8d0f1dd)
N           -1.59624876161910        2.95253887030482        2.33090828765157
C           -1.55508248475717        2.22400986148860        1.31450032631801
C           -2.67641826587467        2.09374417607004        0.31915979930918
C           -3.24020864438680        0.68146380847007        0.37630002012624
C           -4.13584801489014        0.24845857441739       -0.60518051826575
C           -4.69951386722671       -1.01278233447744       -0.56087621583522
O           -5.58202063273874       -1.51061953559463       -1.46793560371345
C           -6.05850905221009       -0.66955207876916       -2.48798768730462
C           -4.36453223390132       -1.89274497941599        0.49528936364475
O           -4.97135822308669       -3.10839109904823        0.45602424150394
C           -4.77347601858644       -3.99818896533187        1.52620736976433
C           -3.47751882450287       -1.46252826188319        1.46400181824150
C           -2.92379300647604       -0.18803214140882        1.40385219561250
C           -2.04360474435006        2.36964309954627       -1.07050432552279
C           -1.18117444562440        1.22458950457734       -1.63075054055972
C            0.11156781654781        1.05462761906719       -0.92810597650169
N            0.63022053774022       -0.12093503854325       -0.54582422567743
C            1.99802764776884       -0.20658012671876       -0.09737292296686
C            2.93812708109925       -0.71662047945963       -1.20475981570774
C            4.33989998327250       -0.85537839435369       -0.66499701221205
C            5.18746285916383        0.24317347267208       -0.65393658350229
C            6.47177630228391        0.10084690538785       -0.12151346736898
C            6.81869117080510       -1.10127573204431        0.36520762655955
O            8.03638203281944        2.62322778557531       -0.22341056372559
C            9.36408894563872        2.82792034201445       -0.22105542259861
C            6.03611627687123       -2.23563507766888        0.38528141394493
O            6.53343413309632       -3.39111457127160        0.90695115792220
C            5.72631165360188       -4.53976449865725        0.92517963775885
C            4.75241649696391       -2.08141020492016       -0.14786264547786
C           -0.10694238250523       -1.35301989457882       -0.67290134554423
C           -3.84649495285276        3.08906431852237        0.56829162570600
C           -4.54738025796901        2.81148561786088        1.89701459672184
C           -3.41087415478923        4.55183208179585        0.51185146065970
H           -4.40389222767861        0.91787960358642       -1.40624797022359
H           -6.56107351578640        0.21415976182611       -2.08130766415351
H           -6.77883347397404       -1.26783806573786       -3.04367656607410
H           -5.25637701652778       -0.35447139368456       -3.16432018562117
H           -5.09042780752401       -3.56149568107387        2.47881046220547
H           -5.39581718556537       -4.86319268811515        1.30255518825875
H           -3.72818692705511       -4.31651023109622        1.60205662440028
H           -3.21366927606319       -2.10539900950839        2.28873463400680
H           -2.25796124500875        0.12266190676206        2.19409619598869
H           -2.84232503572330        2.56895799038211       -1.78554516864568
H           -1.43181666984650        3.27034088491126       -1.00155653081440
H           -1.75918793159300        0.30211575405012       -1.63112283418323
H           -0.96052360939577        1.48094722692363       -2.67604505872264
H           -0.67365349950938        1.62995608587062        1.01290639306539
H            0.75736118006427        1.91371422520373       -0.84379762713946
H            2.04784109855534       -0.88349390189370        0.76066286312653
H            2.33682846055409        0.77909680129857        0.22720883850179
H            2.92398767840622       -0.00659809343353       -2.03351303896397
H            2.57654990629100       -1.67931519774309       -1.57166878052995
H            4.87223854116738        1.19369216626927       -1.05438051320934
H            7.15134238413942        0.98158669517067       -0.11631937696279
H            9.60431077413220        3.86178397173987        0.11208822150980
H            9.83717852636714        2.69803401280618       -1.21624033566052
H            9.89038478135099        2.16232934015399        0.49303996471422
H            6.34109319577902       -5.32322003708718        1.36720323325214
H            4.83055420181873       -4.39931555621426        1.54157869046923
H            5.42817457397651       -4.84695193523306       -0.08372254373227
H            4.07200052163666       -2.92231095899840       -0.17273021797717
H           -0.26802183672096       -1.61827358481039       -1.72127453945820
H           -1.07852706227026       -1.26897314984503       -0.17932443231827
H            0.45500059914067       -2.15249885808499       -0.19641595046473
H           -4.57402704411081        2.92158885647679       -0.23505772361442
H           -3.86096679793062        2.98021344488291        2.71963629582254
H           -4.90882307248839        1.78697949420832        1.94178633042475
H           -5.39749087397012        3.48025736191288        2.00787610475419
H           -2.64381664910537        4.74400852866565        1.25501736129738
H           -3.03469134259837        4.82385810472215       -0.47101687065157
H           -4.26502212431069        5.18823169719609        0.73004583313616
H           -0.76133897510956        2.97470264087220        2.91142095335193
