72
 energy: 102.526585476311 xtb: 6.6.1 (8d0f1dd)
N           -1.61680481477541        3.03994254274185        2.31194927885019
C           -1.58434142180665        2.22368591825284        1.35559124938073
C           -2.68491661172179        2.09024820773065        0.32517834731714
C           -3.26167733844342        0.68272923424834        0.37375599398359
C           -4.17803850782029        0.25474341625713       -0.59265559271263
C           -4.73748354800942       -1.01005390310232       -0.55137084825852
O           -5.63932269424114       -1.50433455558939       -1.44611256485791
C           -6.14690897997276       -0.64888043397892       -2.43793175441530
C           -4.37669777374229       -1.90134913129213        0.48403465222112
O           -4.98044404272473       -3.11919962338821        0.44769940719823
C           -4.74040288598587       -4.02295720516515        1.49654810318908
C           -3.46868112521548       -1.48062153785397        1.43556295837401
C           -2.92714198866966       -0.20152362092048        1.38037736190157
C           -2.06239456371574        2.35856405449448       -1.07126635614186
C           -1.18079460149914        1.23621824688926       -1.66730467958932
C            0.14310778377258        1.04898723635813       -1.02546893203542
N            0.61821517737453       -0.11698038435922       -0.53664755717125
C            1.99748877448719       -0.21223008309324       -0.11756737945859
C            2.92060203859053       -0.74363477159255       -1.23059946782957
C            4.33788545086695       -0.79497382245066       -0.74080315396020
C            5.06342600555354        0.37779549767762       -0.80660008446951
C            6.34451694684817        0.32184996976697       -0.30962727146407
C            6.86249620013423       -0.79608339677350        0.19649884729989
O            8.27470887914928        1.59503435811286        0.36747701365859
C            9.26526384354010        2.31641973434141       -0.07463135269274
C            6.19545323127147       -1.98194130287824        0.32935748124415
O            6.74074656840139       -3.06630760026076        0.91175467573805
C            5.93535640596976       -4.21239449801099        0.96626079484158
C            4.88490592048477       -1.94478669112431       -0.16977600301241
C           -0.10541949859559       -1.36009130906428       -0.66849250324679
C           -3.85724530057742        3.08829826417515        0.56962047154902
C           -4.55110098953249        2.80803415417173        1.90491671220959
C           -3.41881133036737        4.54964272484285        0.51495158703867
H           -4.46999632162848        0.92786539776233       -1.38292289422673
H           -6.63411053572308        0.23221451983459       -2.00614136104286
H           -6.88471608016382       -1.23355626448039       -2.98638556767440
H           -5.36137258657019       -0.32512996400040       -3.12819602839352
H           -5.02781055674492       -3.60004864903513        2.46473940472067
H           -5.36285684792675       -4.89217784887754        1.28810883297026
H           -3.68933987340057       -4.33081740784639        1.53361661156879
H           -3.17515483648795       -2.13612764694035        2.24043457813993
H           -2.24416783877623        0.10526338586448        2.15550306740958
H           -2.87958063544958        2.55454439176642       -1.77716155277359
H           -1.46813902399822        3.26641843057500       -1.02018919282963
H           -1.74009739787309        0.30340316396610       -1.63630904171767
H           -1.02017691626246        1.50390101198266       -2.71999368210564
H           -0.72746631115993        1.54906622367646        1.18122217181720
H            0.81826788164454        1.88281221235184       -0.94141484897924
H            2.06215358164336       -0.87747373360848        0.75045435262469
H            2.33172447493522        0.78145258884533        0.18833627828965
H            2.87192970983529       -0.04187156371235       -2.06692335096131
H            2.57234596115963       -1.71835401316906       -1.56703323022417
H            4.66045118840363        1.28732457779619       -1.21215981873740
H            6.96120956776620        1.25098991859932       -0.27938303182467
H            9.07009049460878        3.37965768418571        0.16047469935619
H            9.49935911314626        2.23116918452352       -1.14779013662828
H           10.16328195563331        2.01569652611908        0.47710010388173
H            6.56302097871808       -4.96219099221864        1.43634742962213
H            5.03667540553230       -4.07415139444884        1.58063066279606
H            5.62538701967084       -4.56457670662054       -0.02373984637017
H            4.27655730041606       -2.84369797652682       -0.12038269955718
H           -0.25817811436130       -1.62985511263417       -1.71936897317585
H           -1.08029687370377       -1.28100067661871       -0.18138244373129
H            0.45727408041853       -2.15465607965047       -0.18212688484753
H           -4.58987854501933        2.92401231772321       -0.23243830996593
H           -3.84994442449450        2.96783320471781        2.71629974590974
H           -4.91469727888300        1.78367879595282        1.94761362541158
H           -5.39725293890967        3.48129323691006        2.03669012192923
H           -2.64524819363749        4.73220784103538        1.25351017842503
H           -3.04263946691801        4.81868970929589       -0.46954722819944
H           -4.26595518041687        5.19413524969516        0.74309748134719
H           -0.80101852448132        3.01320654796579        2.92236592370614
