72
 energy: 93.931650348235 xtb: 6.6.1 (8d0f1dd)
N           -1.59987041486920        2.93831636962035        2.34149527440592
C           -1.54955618266465        2.22765783022163        1.31194640872271
C           -2.67319113661755        2.09541693808567        0.32122144715264
C           -3.23488210992503        0.68233185032079        0.37970921606193
C           -4.12319289800994        0.24634246320416       -0.60721157777615
C           -4.68979250545560       -1.01362314845613       -0.56236023353710
O           -5.56103210889988       -1.51375764212260       -1.47808568025675
C           -6.03197279755698       -0.67390615536741       -2.50243039998585
C           -4.36310173132727       -1.89107004937077        0.49883693792682
O           -4.97195892611053       -3.10635490441969        0.46049140239761
C           -4.78100537249047       -3.99202544668751        1.53525371681140
C           -3.48135426109456       -1.45845072329675        1.47136093541681
C           -2.92375033584548       -0.18526396383135        1.41075206204885
C           -2.03772915307791        2.37510831781497       -1.06593794425113
C           -1.17728746901759        1.22913415534816       -1.62515542068830
C            0.10273065798335        1.05471504943940       -0.89825200289739
N            0.61742652581919       -0.12653215854164       -0.52658467067103
C            1.98811334510980       -0.22078704854027       -0.09052334160797
C            2.91620226224138       -0.73311027475080       -1.20655214188496
C            4.31030372974421       -0.86971236138920       -0.66978032316302
C            5.13519078725813        0.24372146481420       -0.67190430231047
C            6.42769472021418        0.11513529068768       -0.16855785367701
C            6.78296297807646       -1.08639643243147        0.31298410412944
O            8.10092369517264        2.56013731087629       -0.03518373568636
C            9.39501891331662        2.84473429102914       -0.18502193460986
C            6.02526960206494       -2.23098391287806        0.36087099501356
O            6.55930081415883       -3.36402539762817        0.88469686463766
C            5.74641077073187       -4.50891155794192        0.89994266499065
C            4.73098943263796       -2.09380762708129       -0.15632774089911
C           -0.11575417846187       -1.35747205450887       -0.67288151026218
C           -3.84481765781877        3.08912553501461        0.56763817074816
C           -4.54931438391704        2.81291666103720        1.89437250752279
C           -3.41200598023001        4.55272373851053        0.50860490025677
H           -4.38468571002964        0.91429157695431       -1.41166674482082
H           -6.53842947967488        0.20995505506899       -2.10154174406185
H           -6.74870660368961       -1.27359536971570       -3.06057904926687
H           -5.22606997104378       -0.35997344732546       -3.17434689447881
H           -5.10595596177648       -3.55130132735290        2.48312311559611
H           -5.40102866561526       -4.85792984505345        1.30886950178236
H           -3.73649949765202       -4.31006461596989        1.61971332878412
H           -3.22796762614792       -2.09698321781293        2.30265001332708
H           -2.26186752041956        0.12513510231263        2.20492473143616
H           -2.83454959891032        2.57775482972292       -1.78098555773959
H           -1.42288382450667        3.27455413559665       -0.99094262029963
H           -1.75174511253984        0.30599376998752       -1.63728198479223
H           -0.95919280834650        1.48784671060677       -2.67359489436160
H           -0.66097359832892        1.64855916216261        0.98845782852556
H            0.75783152992377        1.90509545188438       -0.82232416440764
H            2.04236563631683       -0.89865980743266        0.76722141426301
H            2.33411358278129        0.76192341127894        0.23401850049326
H            2.90743750968801       -0.01952619622122       -2.03288190851613
H            2.55536379735961       -1.69575877875127       -1.57126282078679
H            4.80013892378473        1.18998344427227       -1.06295495283529
H            7.12324384650827        0.98048593844772       -0.15521503653868
H            9.53254901875406        3.93264247962236        0.05633619852517
H            9.75083433854598        2.74051597129971       -1.23015822426012
H           10.04251197971810        2.28127874388589        0.48986457964763
H            6.34575951363363       -5.30596606576253        1.33552776141977
H            4.84585044226073       -4.37350313686142        1.51415611848239
H            5.44593950835122       -4.81064512336155       -0.11046142826022
H            4.04551558258610       -2.93339847263141       -0.17846731244981
H           -0.26931036702074       -1.61665698980531       -1.72420794381145
H           -1.08943515428109       -1.28073710108137       -0.18502130582969
H            0.44169467375666       -2.16332940397530       -0.20039178676958
H           -4.56913337271628        2.91831625431450       -0.23782657575127
H           -3.86885035464148        2.98612783622501        2.72115687062695
H           -4.90802170771200        1.78752267002317        1.93994461531845
H           -5.40141012474547        3.47928290821372        1.99788743390383
H           -2.64815281383729        4.75108549517415        1.25389277286573
H           -3.03399274440882        4.82155794251720       -0.47456265820749
H           -4.26874573222441        5.18747235437567        0.72180485264704
H           -0.76247785508623        2.97673753155567        2.91506927022784
