72
 energy: 96.577521032703 xtb: 6.6.1 (8d0f1dd)
N           -1.60119979935322        2.98667727121052        2.32573426897163
C           -1.55428856392063        2.23162088353550        1.33332110742262
C           -2.67054240746603        2.09450288751403        0.33066501091199
C           -3.24156872124230        0.68332572871502        0.38002858633574
C           -4.14243577281072        0.25321963931595       -0.60025777929546
C           -4.70726845551179       -1.00830148795781       -0.55724527038432
O           -5.59061489884029       -1.50417437477766       -1.46452078740152
C           -6.07517915262327       -0.65883386919529       -2.47778696079760
C           -4.36974672286201       -1.89135452086069        0.49558482151181
O           -4.97358670799471       -3.10721566203915        0.45660428395182
C           -4.76348087821600       -4.00140284660574        1.52053373730189
C           -3.48035518424452       -1.46357052383090        1.46246106006565
C           -2.92928803063409       -0.18781687652114        1.40633019833289
C           -2.02944703416174        2.37457466135955       -1.05501587498276
C           -1.17740664579162        1.22736422660813       -1.63396574088892
C            0.12546135968134        1.03880246175639       -0.95817639659931
N            0.60706052738588       -0.13010359682747       -0.50521861552428
C            1.98655748215722       -0.23455891957659       -0.09061578846135
C            2.90002807038930       -0.75604588568830       -1.21134015559391
C            4.31615271397378       -0.84986616693573       -0.70013671651210
C            5.09277446437025        0.29434693774022       -0.72322743495805
C            6.38565760025598        0.20494196969780       -0.22483619475807
C            6.81659701909036       -0.95925402071648        0.27571701559538
O            8.18043360494490        2.20801284310590        0.24045924039905
C            9.38069860302190        2.63083463608668       -0.10929862825016
C            6.10459851574731       -2.12862358006670        0.34770681873094
O            6.63450249700607       -3.23969329734238        0.89215161157361
C            5.82184499722475       -4.38160571134906        0.92160198965924
C            4.80282629228763       -2.04165067005946       -0.16613220721814
C           -0.12233904998195       -1.36260090761716       -0.66701095148732
C           -3.84497297273850        3.09045068293995        0.57035614688418
C           -4.55563907478327        2.81463252056539        1.89546566160803
C           -3.41590961995618        4.55518660131106        0.50911865032115
H           -4.41573852219122        0.92230574639180       -1.40071265057869
H           -6.57373834098155        0.22547103132675       -2.06627820426812
H           -6.79939079088110       -1.25070649685310       -3.03673278807296
H           -5.27440585701879       -0.34176723360263       -3.15387043842791
H           -5.07130309089826       -3.56818717188826        2.47762914241985
H           -5.38577508625312       -4.86814243666163        1.30452057426233
H           -3.71546472187076       -4.31421903550052        1.58413884790526
H           -3.20735167773847       -2.11303868900774        2.27963190785605
H           -2.26600335330745        0.12326548184528        2.19750788470400
H           -2.82875924402163        2.58009809796646       -1.76806569864669
H           -1.41863996515869        3.27157237754299       -0.98420113378215
H           -1.76327348328312        0.30902951044720       -1.63342031902866
H           -0.97004418462128        1.50101185917189       -2.67359850358282
H           -0.68148330035076        1.61010122787201        1.04849989691613
H            0.77167075760589        1.89555558817459       -0.86438714945891
H            2.04930643358885       -0.91387934583834        0.76857784237965
H            2.35145711002148        0.74580435104092        0.22432657257088
H            2.88557826243036       -0.04802827196289       -2.04262923094474
H            2.54923246111021       -1.72662780165413       -1.56921831248679
H            4.71735773221673        1.22124927660639       -1.11666779547678
H            7.05773131494323        1.09418474954165       -0.21336536531526
H            9.30876835683190        3.73963019831079        0.07552140212872
H            9.61707421709469        2.53115498271001       -1.19142467277147
H           10.24352159323612        2.27816952251638        0.46144725508248
H            6.42483212497910       -5.16350755487217        1.37218628105357
H            4.92058157249714       -4.24671770758129        1.53256003703775
H            5.51570761645387       -4.70270120877151       -0.07978418759493
H            4.15767138950112       -2.91723986425012       -0.16080483072289
H           -0.26553374350092       -1.60757589430061       -1.72239177391544
H           -1.10006093876989       -1.28659394206907       -0.18721168619834
H            0.43415531637940       -2.17094423966430       -0.19627045906141
H           -4.56856152008530        2.91546515978162       -0.23616551407153
H           -3.87459482176998        2.98377703576346        2.72216896869220
H           -4.92034963429763        1.79092049691629        1.93960891549095
H           -5.40499108668435        3.48505907627740        2.00767742438873
H           -2.65245589149892        4.74805787776766        1.25470745811974
H           -3.03807387336197        4.82719855277552       -0.47309161201888
H           -4.27083346596003        5.19056414348560        0.72694101498435
H           -0.79564676021937        3.03055571477083        2.94503605462293
