72
 energy: 29.656497007876 xtb: 6.6.1 (8d0f1dd)
N           -1.56810107652939        2.89443921223801        2.27803862635516
C           -1.57319146524774        2.18117244062104        1.24402462384097
C           -2.72681616376355        2.07565968744181        0.28021070425463
C           -3.29782989813125        0.66665953824010        0.34660096832720
C           -4.25323130935074        0.25018376037785       -0.58218218479986
C           -4.80297086298299       -1.01788759111262       -0.53896048032804
O           -5.74317766523576       -1.50076118312936       -1.40327994329539
C           -6.28995081933022       -0.62802877883723       -2.35725231476267
C           -4.39082516951236       -1.92507163259273        0.46082042863306
O           -4.99452844456818       -3.14789099482213        0.43117476129785
C           -4.69619843986917       -4.06729186167143        1.44809326134163
C           -3.44292061699200       -1.51502037407524        1.37805451067170
C           -2.90673427189925       -0.23352088292265        1.32018314757419
C           -2.14242019756278        2.32863531983982       -1.13630997694123
C           -1.22205573848468        1.21181753859656       -1.67847168726058
C            0.07571898817603        1.11882237421215       -0.94101419527835
N            0.64076190778962       -0.08963101751146       -0.53139970451821
C            2.01349827569978       -0.11920863545088       -0.13707669145325
C            2.95320729068348       -0.64077970825307       -1.25515041903455
C            4.37790255323001       -0.60071423072777       -0.79891957971794
C            5.06297745370853        0.58352245366968       -0.95258616797457
C            6.34215290114415        0.66823628817591       -0.47825549323047
C            7.05930090095963       -0.31659888987530        0.17551848812430
O            8.33788363361606        0.36499776730780        0.60592312653106
C            9.06673303729920        1.47054873098266        0.14462939694471
C            6.36831839768394       -1.58343472708066        0.33091745696187
O            6.91734207826273       -2.66947352279820        0.94029976536526
C            6.16311514281064       -3.85865241165029        1.06688231727093
C            5.04269736924344       -1.66159667439931       -0.16548477085493
C           -0.06729518424565       -1.33587570022293       -0.63813304453991
C           -3.87414834804396        3.08180380633282        0.57284518828768
C           -4.52358140598035        2.79004273768465        1.92509418852697
C           -3.41121547804867        4.53567141873009        0.53290803017246
H           -4.57937484640746        0.93696391705013       -1.34592032478209
H           -6.75642398558855        0.24596326354819       -1.88943608961801
H           -7.05151051093405       -1.20558545980097       -2.87969439301724
H           -5.53598554547070       -0.29300193209303       -3.07729248772408
H           -4.94323499454079       -3.66542127701385        2.43627179012055
H           -5.32019665223143       -4.93750756601471        1.24875451436673
H           -3.64217586427346       -4.36737489941235        1.43209830912831
H           -3.11321663618443       -2.18123386822887        2.15994176875378
H           -2.18683115855480        0.06260605087137        2.06788481345459
H           -2.97409540802448        2.46542604162484       -1.83444303046520
H           -1.57467153562100        3.25745374055634       -1.12362482452208
H           -1.75447472102899        0.26228038865500       -1.63641554178134
H           -1.05683660517665        1.43785212466850       -2.74829708265925
H           -0.70437235642290        1.61256592407922        0.87570915697151
H            0.75683826152595        1.95104380920125       -1.02041291378357
H            2.13677917361927       -0.76634646269284        0.74478112754286
H            2.31057436897005        0.89511987660002        0.13915742428040
H            2.81589282382873        0.01779021176892       -2.11769140157877
H            2.64696390312010       -1.64807093343346       -1.53840841621863
H            4.61753917528707        1.44131627944884       -1.42132989246891
H            6.90870161986492        1.57494025967748       -0.57048319419996
H            8.74992301151863        2.45221803811985        0.53752953449161
H            9.25842166879260        1.58751808748736       -0.93050926690150
H           10.03179943758273        1.26712619847517        0.62234649482564
H            6.84430861546086       -4.55026767185822        1.55952418120427
H            5.27036525849630       -3.74024985823884        1.69410486557011
H            5.85347065707928       -4.28113133103562        0.10222236566146
H            4.45880874275568       -2.58276515732079       -0.07045444959388
H           -0.23523391884354       -1.64279186881313       -1.67936283861386
H           -1.03986663961563       -1.26326653157508       -0.14289416199864
H            0.51714333817696       -2.10756033025364       -0.13796558822829
H           -4.63109299287223        2.94510123939444       -0.21024055022263
H           -3.79087655439641        2.93341432758212        2.70973841094217
H           -4.89365642235349        1.76834703171688        1.96631142441133
H           -5.35873293162187        3.46835222261040        2.09247631681849
H           -2.62638441734847        4.68685083123954        1.26345216762614
H           -3.04195457177742        4.81102545317695       -0.45182110684184
H           -4.24296691588827        5.19204718092276        0.78023678139918
H           -0.69545901552421        2.86094859557359        2.78607674085845
