72
 energy: 29.100753293172 xtb: 6.6.1 (8d0f1dd)
N           -1.55577804754405        2.97310206628220        2.33206547628452
C           -1.54872686594487        2.20076651621961        1.34207680631828
C           -2.69750580570682        2.07974872860512        0.36014178473476
C           -3.28000053244207        0.67136897771596        0.41703670782601
C           -4.23777644587852        0.25239129065522       -0.51713704127502
C           -4.77585540078960       -1.02038564621892       -0.48453296054619
O           -5.72599702283409       -1.49836575556733       -1.34465495735736
C           -6.23089651926162       -0.62930970881386       -2.32189732910836
C           -4.35183547643816       -1.92616180776603        0.51045742412235
O           -4.94156965434000       -3.15807429835205        0.47462019369913
C           -4.59441924618438       -4.07270196844105        1.48568968240537
C           -3.41334447880143       -1.50620139422918        1.43626613160914
C           -2.88543512442667       -0.22085358054295        1.39740300356895
C           -2.10933759129989        2.33274684168750       -1.05391609989626
C           -1.22633474285272        1.20878867927266       -1.64245820637170
C            0.12973652843385        1.13464920848136       -1.02939683354984
N            0.72895981026435       -0.04022384098172       -0.62729837352867
C            2.12377656275936       -0.08561613604080       -0.39183095474920
C            2.90489362649218       -0.65599982818755       -1.61417808653198
C            4.33862762780277       -0.59978524863445       -1.26957157773337
C            5.06809132555808        0.53596774552572       -1.54863580656939
C            6.31956541001357        0.71392333536145       -1.02962298237591
C            6.65142304505548       -0.24564020455685       -0.12247454295280
O            7.21264570348102       -0.07969898662675        1.10263285520631
C            8.06319475692478        1.03007108949824        1.26122526740952
C            6.13497872106785       -1.54761438272329       -0.13155813254651
O            6.92198551427434       -2.41047091804544        0.53839202800099
C            6.39054451298814       -3.62558559667748        0.95350706005176
C            4.89509815925959       -1.70327162123126       -0.63158270906948
C            0.02548218393499       -1.29050003976298       -0.60473315697039
C           -3.84168145053691        3.09273692862309        0.62067178604933
C           -4.52301914953247        2.84595546246167        1.96609702170935
C           -3.38754114480794        4.55293276168270        0.53632038686357
H           -4.54250926990905        0.93302295638968       -1.29565615342986
H           -6.69349851744415        0.25317297187830       -1.86785665156294
H           -6.98423730121761       -1.20051936656857       -2.86068286699144
H           -5.46418925744572       -0.29679220651115       -3.02893052579060
H           -4.82976697722378       -3.68076552455303        2.48153108988169
H           -5.19128588646884       -4.96312228787611        1.30156024780312
H           -3.53206700720271       -4.33857645640496        1.44796985699245
H           -3.07023823197683       -2.17518840759594        2.20357869748703
H           -2.16641643831337        0.07583252775655        2.14794569999938
H           -2.93848042915889        2.52102368150947       -1.74102779327357
H           -1.50592868382696        3.24301108632028       -1.00965208711459
H           -1.75893525740511        0.26348852912261       -1.57113965884663
H           -1.11392257951987        1.44135822339122       -2.70998257261085
H           -0.68142994070895        1.59456582326341        1.04131371527161
H            0.81171902705318        1.93473212411174       -1.28584675261150
H            2.32590152330025       -0.69302894117772        0.50343721503293
H            2.44094079343322        0.93342380090774       -0.16546945828375
H            2.70313121008203       -0.05204276475443       -2.49623410561358
H            2.62173714808940       -1.69107763367279       -1.83886814578767
H            4.65861372357887        1.38039427185870       -2.05540871852061
H            6.87615806238302        1.60556669591876       -1.23692383644581
H            7.52499095345586        1.92184282125557        1.39685073883528
H            8.58292297749857        1.35022077622012        0.43032337124698
H            8.84245158926622        0.85009320533735        1.98987574652958
H            7.18249462981014       -4.10236008785751        1.52729869529115
H            5.54209351829931       -3.43924937406876        1.60637913481909
H            6.09535927316364       -4.25906304762827        0.11284735891318
H            4.35361948785204       -2.60405739538887       -0.44897376675046
H           -0.15810636504437       -1.68889673414727       -1.61178314762551
H           -0.92938747578851       -1.17148365772532       -0.09408919957541
H            0.61837853222961       -2.01652065326911       -0.05409390748973
H           -4.59674369174861        2.92858886534867       -0.16669250504302
H           -3.82182960011513        3.00164613698322        2.77833857582267
H           -4.89884736979756        1.82791885593654        2.02736526198938
H           -5.36257530655617        3.52853689673034        2.07013907245310
H           -2.62197649971799        4.75832611282217        1.27458449793872
H           -3.00145447453405        4.79559035982471       -0.45055546881569
H           -4.24863090673867        5.19140856214205        0.73016112651584
H           -0.73698187781281        2.99071325980601        2.93744687470400
