72
 energy: 50.505522299277 xtb: 6.6.1 (8d0f1dd)
N           -1.48322108549363        3.05466499909739        2.36142895939620
C           -1.44031785362374        2.24471894990556        1.40439300003951
C           -2.56934789549915        2.09159369058022        0.41591869870266
C           -3.15161660492230        0.68569706133781        0.50286028298565
C           -4.07517969720417        0.24508489529146       -0.45736023561245
C           -4.62744483965150       -1.02216269428764       -0.41300410288592
O           -5.51827992724131       -1.51600971680830       -1.31871624764761
C           -5.97164323848332       -0.67523782648088       -2.35147270525797
C           -4.25416163924953       -1.90133641747598        0.63205100900309
O           -4.82979798383557       -3.13771314402529        0.60420180409386
C           -4.50767393739455       -4.03530301611769        1.63608517236764
C           -3.36256564381206       -1.45541592918146        1.59559459066020
C           -2.81920596969548       -0.17436268217671        1.53573131043353
C           -1.95074559088143        2.36863067151122       -0.98227358479374
C           -1.13468937728791        1.21886598114318       -1.62083675081372
C            0.26146052238653        1.13919734352244       -1.11061424014035
N            0.86242638852465        0.01351600916506       -0.63251380129884
C            2.29389541146137       -0.05949706746178       -0.59006392523971
C            2.95369576662609       -0.69902162923179       -1.81907566499007
C            4.45466285800392       -0.63539756057342       -1.60318970903966
C            5.18360783985883        0.47756863176687       -2.02524938928766
C            6.49362140754905        0.70367884076048       -1.60437515073492
C            7.06500343702555       -0.12362195882943       -0.64177853188564
O            5.25440413500110        0.07060552676380        1.15935775621604
C            6.19184492075438        0.58869511077917        1.79663303804675
C            6.45978138704602       -1.40605079085460       -0.47537366248487
O            7.25693180274312       -2.27252119954973        0.21598774734983
C            6.66399567858085       -3.38886794145331        0.85623468808722
C            5.13464589144834       -1.61787250714696       -0.86457921544789
C            0.15445208993254       -1.24104368193286       -0.53563277209403
C           -3.73590337423144        3.09086286611503        0.64506012637949
C           -4.41637148669205        2.83686133591272        1.98599830848938
C           -3.30195261788875        4.55557954174532        0.55079524316302
H           -4.35936582479130        0.90742190973236       -1.26150548027605
H           -6.46099279055687        0.22363589569923       -1.96479291579949
H           -6.68947455416218       -1.26608496746196       -2.91598261308788
H           -5.16480999362413       -0.37349458801898       -3.02329868638090
H           -4.78152908237563       -3.63535303096915        2.62126696635619
H           -5.08705547354219       -4.93493784535509        1.44400889952109
H           -3.44051753977061       -4.28531576627406        1.62854934424976
H           -3.07565781525584       -2.09728259343939        2.41505169781843
H           -2.14446264753539        0.14742340969695        2.31838357981861
H           -2.76410109286571        2.62003994651247       -1.66547872305102
H           -1.30380827013065        3.24326443592154       -0.90140563156314
H           -1.67373324110597        0.28506408819610       -1.47284556637894
H           -1.08376726160500        1.39763163506249       -2.70964149433266
H           -0.58025159756044        1.60254844828871        1.16947310824046
H            0.91769493549084        1.95840515520303       -1.36128257448277
H            2.60882807088420       -0.63185231868427        0.28178161925447
H            2.68608982777579        0.93874441892370       -0.49578606423830
H            2.63337875059343       -0.15467772522737       -2.72044512197262
H            2.59789703056235       -1.72751752550167       -1.86203226887850
H            4.75333248614234        1.17465590936415       -2.70694727681776
H            7.01748330711581        1.58449924428417       -1.94414223179848
H            6.22450141054077        1.68549297708748        1.75896394404943
H            7.64561967499692        0.16852320513441        0.22525759006180
H            6.78435358232371        0.31751304283345        2.71829235033769
H            7.44716612988465       -3.87334844861671        1.43359769415758
H            5.84973288490784       -3.10500369587865        1.53424862216969
H            6.28916448767796       -4.10116059527931        0.12882350541313
H            4.57813402477065       -2.49960860633451       -0.54365347908702
H           -0.03714505796865       -1.68903956688937       -1.52090536206058
H           -0.80047002879649       -1.10749368997002       -0.02468017519008
H            0.75603837889821       -1.93948823234173        0.04774928596098
H           -4.47707529870128        2.89228386552673       -0.14477799851266
H           -3.72181907101760        3.01654556614917        2.79781441032558
H           -4.77822527992747        1.81319536262502        2.04827899181578
H           -5.26168963020698        3.50965780553902        2.09595204319986
H           -2.54578840038711        4.77253748927542        1.29640492134224
H           -2.91500065910036        4.80591441104553       -0.43381034692136
H           -4.16241109465297        5.19188287541610        0.74535429900330
H           -0.64477933034686        3.09172642694758        2.94232904013608
