72
 energy: 11.714876910709 xtb: 6.6.1 (8d0f1dd)
N           -1.53766624209878        2.89443780750700        2.29797923887316
C           -1.55336767670733        2.17594261828561        1.26811774975980
C           -2.72188381668510        2.07268058768589        0.31540554278571
C           -3.30066517352061        0.66512655669112        0.38121615383979
C           -4.26936603530094        0.25096800417602       -0.53894150756515
C           -4.80600556394485       -1.02155568301456       -0.50279620011671
O           -5.76617927614711       -1.49680094229635       -1.35215439050801
C           -6.28900621405718       -0.62151202526106       -2.31312352110960
C           -4.37081372036435       -1.93204899660079        0.48221916179766
O           -4.96238711818552       -3.16263432269199        0.44671027829720
C           -4.61867065328718       -4.08140228875735        1.45517357971732
C           -3.41894840422166       -1.51735737083840        1.39483881236537
C           -2.88983640904414       -0.23324698495151        1.34768160501664
C           -2.14886596962790        2.31826666120057       -1.10582512847049
C           -1.24387878402920        1.19689894044160       -1.66152596875075
C            0.07456412621536        1.13294766182974       -0.97072839664273
N            0.68835058036100       -0.04614207497106       -0.59145855605096
C            2.07808813882321       -0.07202346116354       -0.29235296467182
C            2.91305728889484       -0.61655763838999       -1.48534549886538
C            4.34590601366406       -0.53765020620807       -1.12149122621097
C            5.06797433508064        0.60863175554815       -1.38100242969953
C            6.33918572323617        0.75418649651571       -0.88955438592039
C            6.75079580210010       -0.24433098159093       -0.05419814600394
O            7.61539116944343       -0.12836946915014        0.97078174357872
C            8.42573403128396        1.00079305432392        0.96533449158027
C            6.16935361217529       -1.50633975091695        0.01118683780616
O            6.92225656140756       -2.39795299444370        0.69413884356520
C            6.36183782445875       -3.62989684322107        1.01599195265915
C            4.91363554221628       -1.63038015179908       -0.47624633874326
C           -0.00535731152098       -1.30121045927964       -0.60923840562969
C           -3.85889170635489        3.08892123531822        0.60246562369526
C           -4.51573468855126        2.82456849844425        1.95625912469023
C           -3.39461573635214        4.54665740433647        0.53520546791344
H           -4.58466082687299        0.93795879750641       -1.30603743447317
H           -6.74598363459569        0.25610999506348       -1.84276535967673
H           -7.05106457578270       -1.19142974795870       -2.84095180239735
H           -5.53319920471243       -0.28448312407986       -3.03098325556030
H           -4.84747682908361       -3.69004164799193        2.45231136459301
H           -5.22650081642394       -4.96534127311789        1.27025338892350
H           -3.55941170283495       -4.35774762105932        1.41284340414375
H           -3.06755932273258       -2.19004274746327        2.15497153907324
H           -2.15517785140938        0.06113742295482        2.08088236893243
H           -2.98305084676879        2.47182126182897       -1.79357351001948
H           -1.56461105049472        3.24187637942600       -1.08153222212322
H           -1.77426382743335        0.25015811186108       -1.60404409010225
H           -1.07153132465101        1.41258182979488       -2.72616755552694
H           -0.68271029858207        1.61411911521869        0.89047746008749
H            0.74610504091319        1.96109735176238       -1.15706322607058
H            2.25795571497401       -0.68284338647574        0.60774361395393
H            2.37707295916608        0.94998831951981       -0.05915302440822
H            2.71657886509038       -0.01185579100989       -2.36970865119996
H            2.64801397839435       -1.65354385130529       -1.71747858321724
H            4.64236776080065        1.44742038613400       -1.89249014616271
H            6.89772287145629        1.64942848510032       -1.08722414633544
H            7.89956986546953        1.88823897068234        1.20939932487587
H            8.79731770711752        1.28438277428396        0.03221915256094
H            9.27656502852129        0.80827773506864        1.59885442328513
H            7.13719898813010       -4.15267148967326        1.57447614448750
H            5.48918122517163       -3.48424482562256        1.64644672683061
H            6.07283300328974       -4.20553680779088        0.13487509132202
H            4.36079165232253       -2.52448562614492       -0.30125117980913
H           -0.18587149831752       -1.66760507871025       -1.62851243081148
H           -0.96266402073805       -1.20699347996840       -0.09722497358485
H            0.59101676618769       -2.04014697311049       -0.07952433876938
H           -4.62395906162819        2.94415103359582       -0.17522529319612
H           -3.79205081233057        2.95851361563025        2.75319099008054
H           -4.89340200906197        1.80779453948264        2.00837880935912
H           -5.35060845100226        3.50641227035692        2.09576274382206
H           -2.61407711293593        4.72232495140117        1.26949826616432
H           -3.01964423718528        4.79691901572299       -0.45440990146338
H           -4.24160417688568        5.19170872576872        0.75940469544544
H           -0.69207684904686        2.89698794783413        2.86558696702322
