72
 energy: 29.209505227362 xtb: 6.6.1 (8d0f1dd)
N           -1.40926884919070        3.00409494212354        2.33674532328718
C           -1.39259860567619        2.25564741857248        1.32689518589561
C           -2.54262756569527        2.09860202457412        0.37288910531383
C           -3.10777788497078        0.68817311609471        0.48303981147997
C           -4.03349317778710        0.23964194473708       -0.46230486052799
C           -4.58320388353283       -1.02666814762013       -0.40361242081107
O           -5.46942047883669       -1.53866744751292       -1.30145935392038
C           -5.93305884343217       -0.71045201146455       -2.33500342480471
C           -4.21038348193308       -1.89523322285237        0.64688215882889
O           -4.79259685185404       -3.12753101622613        0.62759358832059
C           -4.50729750119695       -4.01407849179230        1.67936145933014
C           -3.30513663030643       -1.44626838608941        1.59310124211824
C           -2.76068116543396       -0.16820901213993        1.51140463252161
C           -1.96154892075303        2.34728300271880       -1.04454328297436
C           -1.11685347963969        1.19435003821536       -1.62603019561239
C            0.24543004793112        1.15295968581323       -1.04045516111808
N            0.88260775369208        0.02515726832354       -0.61908691198628
C            2.31269501280733        0.00095198672952       -0.49661317020743
C            3.01232922241381       -0.67894101547070       -1.68388796719998
C            4.50600310174125       -0.54745427240180       -1.45281913128400
C            5.16910519615990        0.59087260076670       -1.92900382446240
C            6.51704741845511        0.75682217642516       -1.64754639961701
C            7.16913087749620       -0.09259302114402       -0.75157054500988
O            4.65271897615451        0.03724413158318        1.34104190608934
C            5.74642743782152        0.32124654619364        1.79943621548269
C            6.55267651093962       -1.31003872153585       -0.40685885207175
O            7.35239042689846       -2.21907998287162        0.21479527577640
C            6.74352711202350       -3.31880459454464        0.85697134364810
C            5.20155513360455       -1.50307968411500       -0.71012547573310
C            0.19128531309439       -1.23141771312486       -0.50647148165141
C           -3.70589036005315        3.09634182357786        0.63423334403415
C           -4.37072472589893        2.83433689684838        1.98378716607021
C           -3.26866022465530        4.55890910323077        0.54987853592402
H           -4.30830558352062        0.90030809400637       -1.26713075342176
H           -6.42481060710490        0.18725833984296       -1.94510067333951
H           -6.66295747564187       -1.31094116112771       -2.87687126653504
H           -5.12328351951184       -0.41583938867755       -3.01297840646250
H           -4.79132309483487       -3.59334337428109        2.65190270017627
H           -5.11283270676059       -4.89781025941624        1.48729021848030
H           -3.44653303414384       -4.29240142660832        1.69267809152820
H           -3.00861792652792       -2.08162598056069        2.41330930349725
H           -2.07165171096159        0.15475379794686        2.27699496822051
H           -2.79075261631590        2.54706881558923       -1.72662086191950
H           -1.34059542944386        3.24524473492183       -1.00834824676891
H           -1.64890170569613        0.25399412901926       -1.49260250017983
H           -1.01615614258701        1.36727049192103       -2.70959212712367
H           -0.51153740954734        1.67158510034707        1.02343727720556
H            0.88314164891761        2.00522078050926       -1.20436131760742
H            2.60738984909642       -0.53756514270233        0.40349666380396
H            2.69439086216176        1.01482611952166       -0.44041948709422
H            2.66728594531021       -0.16185025270733       -2.58954974826958
H            2.67927325084197       -1.71888747340713       -1.72245399539932
H            4.63114527403978        1.22854565976983       -2.63851159452262
H            7.09648712962977        1.54096403365149       -2.12376903333871
H            6.22950012766320        1.30449085324628        1.71129670382288
H            8.09072240882738        0.14690907053753       -0.21158649899727
H            6.22178861401729       -0.17085708031626        2.67521407367568
H            7.53159041224580       -3.80874477152125        1.42451046348871
H            5.94445976384070       -3.00928944164802        1.53797794916096
H            6.33819521507214       -4.02096859211642        0.13000651151715
H            4.66624039608256       -2.39217357575278       -0.41130560028216
H           -0.01121074147044       -1.66724160602696       -1.49231620990271
H           -0.75765270038213       -1.10716576792309        0.02037149334080
H            0.81390405552320       -1.92330703792727        0.05828231265595
H           -4.45502333667978        2.91328596079869       -0.14786388763754
H           -3.66195018093141        3.00872765580512        2.78515627608102
H           -4.73325902275115        1.81088047158698        2.04781917466824
H           -5.21460294700316        3.50714947415279        2.11147575682661
H           -2.50651982235652        4.76405010876627        1.29395387875529
H           -2.88474512732832        4.81331702446576       -0.43492190960670
H           -4.12428710398164        5.19929558024464        0.75191249029243
H           -0.54135705024037        3.02119110955346        2.86870942073085
