72
 energy: 38.713232120531 xtb: 6.6.1 (8d0f1dd)
N           -1.56234879686080        3.01049734186147        2.34743792240007
C           -1.54576465792110        2.21360268078261        1.37751768512138
C           -2.68400696129331        2.08308358207938        0.38139830602542
C           -3.26802463472818        0.67405423927562        0.43481731980371
C           -4.22041622824272        0.25274179907536       -0.50640233935982
C           -4.75986902622675       -1.01981183458920       -0.47496703288221
O           -5.70383159209200       -1.49916927202787       -1.34118192063310
C           -6.20126503824288       -0.63363537624059       -2.32636521004673
C           -4.34173310006436       -1.92316312246131        0.52556237770317
O           -4.93012737063337       -3.15554924941589        0.48966891539380
C           -4.58230351116844       -4.06858913117718        1.50174819153568
C           -3.40999559997059       -1.50074176504260        1.45806129828159
C           -2.88242497568670       -0.21478383820589        1.42273779051359
C           -2.08797772907037        2.33981572154080       -1.02889241266881
C           -1.21575255461127        1.21464975468558       -1.63247912614634
C            0.15843553570768        1.13398459576607       -1.06163328414249
N            0.74940819217175       -0.03608620256707       -0.64261179732393
C            2.14690834438702       -0.09090118779146       -0.44206182969032
C            2.90357171723566       -0.67449876565046       -1.67698257955716
C            4.33934235096000       -0.62953750013000       -1.34135453618388
C            5.07413549507635        0.50148521465692       -1.62873673450606
C            6.31788014750848        0.70166020551251       -1.10076755155409
C            6.63671559794087       -0.24537665826637       -0.17326916735233
O            6.99940549810062       -0.06200431513104        1.13665706417563
C            7.87127861395078        1.02545273436908        1.38972027458777
C            6.13398799976257       -1.56173637778843       -0.20266276131740
O            6.93994615594100       -2.40601903927382        0.47452848236613
C            6.41604740288992       -3.60826991754291        0.93212090319746
C            4.89645166892612       -1.73505171807878       -0.70433578381295
C            0.04152142008511       -1.28429728029451       -0.60135494119064
C           -3.83215353629985        3.09363499672072        0.62913784408010
C           -4.52321090951011        2.85021634065688        1.97018607021659
C           -3.38332924504348        4.55501328651168        0.53799163502447
H           -4.52114211427794        0.93002566939228       -1.29028204506386
H           -6.66704262489523        0.25126006209360       -1.88117528924499
H           -6.95024295492617       -1.20606163127136       -2.87006182194137
H           -5.42964315464338       -0.30370821929193       -3.02845725201129
H           -4.82128177465739       -3.67669031556359        2.49700117583231
H           -5.17400681654246       -4.96168123157086        1.31695272076847
H           -3.51854538681685       -4.32956268584303        1.46628435739636
H           -3.07220196680230       -2.16730680451343        2.23046999289624
H           -2.17264822866343        0.08294749396846        2.18334479234304
H           -2.91342193847465        2.54548263498817       -1.71647518642087
H           -1.47504325767712        3.24258032366980       -0.97430672287015
H           -1.75056181512459        0.27060043309019       -1.55241437433730
H           -1.13235384651604        1.45428613061195       -2.70073297157170
H           -0.68169094301419        1.58634517933061        1.11296330770900
H            0.84416374473231        1.92074432571943       -1.34681396712449
H            2.35952443159428       -0.69732368773786        0.44922432318339
H            2.47472436098925        0.92603859393002       -0.21810639509962
H            2.69903661005771       -0.07182584000060       -2.55891959864210
H            2.60909111190226       -1.70807344286225       -1.89635512685005
H            4.66882288769013        1.34729785541524       -2.13395688131195
H            6.86764003342173        1.59541321225026       -1.31620201700261
H            7.35151529239660        1.93226395852481        1.45852340271156
H            8.44148215042672        1.27943781901697        0.58168092753607
H            8.61955765206108        0.86879351252359        2.16053649271935
H            7.21024194162564       -4.07593439560951        1.50814634456282
H            5.57547104228058       -3.40634527734073        1.59283553356943
H            6.11441500341397       -4.26037409444128        0.10615603615890
H            4.35515211736648       -2.63856619330678       -0.52069094611205
H           -0.14388593724812       -1.69826224779647       -1.60191812809077
H           -0.91217285559732       -1.15260764812834       -0.09183395408362
H            0.63297922874777       -2.00371949837404       -0.04064588220261
H           -4.58215743706049        2.91950072575179       -0.16246199263095
H           -3.83343698705286        3.01781198809007        2.78940931353838
H           -4.89600567927355        1.83062512325171        2.03268167971577
H           -5.36524006227643        3.53242245950874        2.06242239164830
H           -2.62422020460135        4.77314648162470        1.27725511275537
H           -2.99308001975786        4.79614848085060       -0.44741098153922
H           -4.24998333084151        5.18995968746927        0.72298465256988
H           -0.75620020517768        3.03494018913593        2.96934385203334
