72
 energy: 16.518263505680 xtb: 6.6.1 (8d0f1dd)
N           -1.38641247256764        2.96599733305490        2.31865022048740
C           -1.36886509722776        2.24879348197958        1.28873833244286
C           -2.53577563398606        2.09908873003085        0.34906403782262
C           -3.09559884627897        0.68788981743554        0.45618076791314
C           -4.02893955815283        0.23929303344673       -0.48173360244089
C           -4.57755024615600       -1.02628819592436       -0.40516931548268
O           -5.49185900016599       -1.54010650181114       -1.27495289105100
C           -5.98609788117934       -0.72151067969092       -2.30360550549911
C           -4.19222138753704       -1.89314641019955        0.64276046492419
O           -4.78916464501107       -3.11723967940251        0.63701353524074
C           -4.52356889279847       -4.00207526850619        1.69509862438616
C           -3.27135238127369       -1.44712912100721        1.57157809132415
C           -2.72989562249829       -0.16960639120122        1.47738538595752
C           -1.97489199846777        2.33574112190095       -1.07785930635606
C           -1.10882979783109        1.18899433060853       -1.63003111485781
C            0.24759278641339        1.15007298783798       -1.03641540708655
N            0.88839628410339        0.02300271554145       -0.62136053519952
C            2.31253677934323        0.02971553989891       -0.44561691243192
C            3.04493942729286       -0.63946715319401       -1.62799781491222
C            4.52486458240409       -0.49858719575616       -1.44559287496324
C            5.19594989077962        0.59425266963246       -1.97406347136089
C            6.55548762975412        0.74443350869469       -1.76070345666126
C            7.24845783540292       -0.17913089648543       -1.00660667938422
O            4.42602594601755       -0.03333595426939        1.91736177540228
C            5.54951044873982        0.29976283665714        2.23291865202794
C            6.58115167663145       -1.27599024978266       -0.45908603507528
O            7.35128586723064       -2.12087769209887        0.28429046805484
C            6.75112417493407       -3.25092969108423        0.86743766049145
C            5.22244448129930       -1.43599178269222       -0.69274686834321
C            0.20698766177505       -1.23616831565193       -0.50808405147093
C           -3.69478878113343        3.09786218759008        0.63103313474526
C           -4.35234050022655        2.83153737383091        1.98406365395214
C           -3.25974576232165        4.55997217017455        0.55311714925208
H           -4.33352485331015        0.89809668094581       -1.27834836157337
H           -6.47658605867507        0.17460078800080       -1.90877148370232
H           -6.72091230033363       -1.32957941353514       -2.82936799002383
H           -5.19728410599258       -0.42605536169851       -3.00426178360185
H           -4.80168580401961       -3.57121442393595        2.66270400324462
H           -5.14068289286122       -4.87823538298057        1.50126052799014
H           -3.47019455646080       -4.30155883605893        1.72049485635819
H           -2.96635080895132       -2.08217308393586        2.38833315522463
H           -2.03081362054008        0.15302960459454        2.23337427699556
H           -2.81011103219438        2.49414823857757       -1.76127041616672
H           -1.37786344788818        3.24929922438725       -1.07195659585836
H           -1.63026312188504        0.24183705666600       -1.49947463883817
H           -1.00607172028568        1.36363208059711       -2.71139904559979
H           -0.48455218560495        1.69466461530941        0.93415402719301
H            0.85575727564553        2.03497313688306       -1.10586156889341
H            2.57302471478588       -0.48542613291366        0.48232741234556
H            2.65957630379247        1.06073282632497       -0.35652714841202
H            2.72890202100314       -0.15324498701272       -2.55338867030908
H            2.76438605140559       -1.69290483023052       -1.67524725393067
H            4.65590303466808        1.32422762197302       -2.55923692928289
H            7.07822778256966        1.58945968275631       -2.18418432763596
H            6.08149820319967        1.12610729277420        1.74276663641052
H            8.30637746572470       -0.07656007632023       -0.82432182685009
H            6.10923132989194       -0.20674901431412        3.03212880190991
H            7.54465619960173       -3.74645919712337        1.42539090988887
H            5.94443010325132       -2.97273511680318        1.55299060877326
H            6.36336586941012       -3.93749890371194        0.10716356527938
H            4.68602915872066       -2.27886698945660       -0.28524961551538
H           -0.01294651534926       -1.67797367708401       -1.48693575000596
H           -0.73291682236621       -1.11219981516967        0.03503938710008
H            0.84072770863353       -1.92383862585996        0.04827276561026
H           -4.44887017220746        2.92859141729170       -0.14746200752003
H           -3.63575356256245        2.99982931074833        2.78074621735072
H           -4.71675745035030        1.80898382449682        2.04645200702855
H           -5.19489969064394        3.50569643315998        2.12050447729797
H           -2.49259222077548        4.76158679349916        1.29385230969947
H           -2.88134849775675        4.81689803371823       -0.43298034447644
H           -4.11429392681450        5.20008978325174        0.76055564944326
H           -0.52177562884416        2.99725159954698        2.85515437932225
