72
 energy: 94.807854120448 xtb: 6.6.1 (8d0f1dd)
N           -1.57029165683102        3.10454456048443        2.38459094079692
C           -1.52545803538848        2.24865150425748        1.46797271364513
C           -2.62476225351472        2.09103762615587        0.43480449024194
C           -3.21007724214408        0.68049512026731        0.49144963112318
C           -4.14341373717490        0.25099865041332       -0.47098352052255
C           -4.69185004500376       -1.01893413184532       -0.43876539024758
O           -5.60791666442103       -1.50351135538199       -1.32750298574860
C           -6.08278322983341       -0.65271774660046       -2.34153877547948
C           -4.29846720253837       -1.91197557129794        0.58578623731694
O           -4.88022934652179       -3.14508727070453        0.55197091937842
C           -4.53807950090560       -4.05204835650826        1.57019689336976
C           -3.39211413533472       -1.47974836586545        1.54182287371650
C           -2.86243756036882       -0.19303057298208        1.51006882902882
C           -1.99609991281689        2.36494474745320       -0.95956174209387
C           -1.17332344947729        1.22376201820042       -1.61003609395487
C            0.24360974755358        1.10944014823773       -1.17699482584133
N            0.81286131583434       -0.00507809574184       -0.63481685594969
C            2.23133589484708       -0.10020159556517       -0.59967708458942
C            2.91135618238008       -0.72280809148983       -1.86579207631096
C            4.37144629871578       -0.70541405787379       -1.59612817219508
C            5.13140985702018        0.41826764208167       -1.92034692372674
C            6.33303147112911        0.73528444182351       -1.36057184816399
C            6.70905078247811       -0.18336517372818       -0.34067726532335
O            6.13101072810862       -0.02245538808841        1.03924993450997
C            7.09646895018021        0.90756901041805        1.65775056587582
C            6.24323035511180       -1.56623123094994       -0.47299449198274
O            7.06236290118705       -2.36364628419938        0.25925235327414
C            6.53850526034524       -3.50980035254076        0.87500970021939
C            4.98811622670677       -1.78910070841701       -0.97020449783965
C            0.10184130077979       -1.26021287287017       -0.57365096762739
C           -3.78560261658508        3.09247838204817        0.64630080481058
C           -4.47686104748766        2.84377546219398        1.98134122260620
C           -3.34682603417834        4.55497932772634        0.54718317443122
H           -4.43636602761281        0.91898846251892       -1.26871780227629
H           -6.56259594804517        0.24037397801597       -1.93207128870605
H           -6.81411892061968       -1.23425125162833       -2.89946589731876
H           -5.29315229242015       -0.33613373687836       -3.02672159073259
H           -4.79334427785042       -3.65926892381204        2.56209924087535
H           -5.11463260720691       -4.95240568293388        1.38091743275452
H           -3.47045325078895       -4.29957799260216        1.54593785412559
H           -3.08022461920078       -2.13462563403866        2.33901502458393
H           -2.19033528600086        0.11118957106552        2.30616134011802
H           -2.80952124555843        2.62314314092198       -1.64369851856906
H           -1.35634209907852        3.24455470637199       -0.86790779027029
H           -1.72025891986667        0.28971455496399       -1.48546885502582
H           -1.14539078554278        1.44187968552050       -2.69112782446295
H           -0.67662150467967        1.56615771859786        1.30494205381748
H            0.92789682323734        1.87930982464138       -1.50399879809111
H            2.49479268811978       -0.70926279740110        0.26657814536833
H            2.60925454886200        0.90547947561226       -0.40786349809150
H            2.67728052999261       -0.13241047986642       -2.75143394921159
H            2.55853343220180       -1.74788997820466       -2.02503389638728
H            4.71408475567576        1.23290464327104       -2.45525027315940
H            6.88224588459174        1.62569164154262       -1.63584956863565
H            6.73636145047548        1.89755635611647        1.53651388054419
H            7.80427323915112        0.64289796948650        0.94284264385320
H            7.64320801452071        0.80989047609882        2.60408504099425
H            7.33321652739631       -3.96858087496794        1.45745023111946
H            5.71688396186734       -3.25740171463294        1.55201975820187
H            6.20892350670886       -4.21618578143451        0.11975769862221
H            4.41639042822838       -2.68009680595444       -0.75954965559472
H           -0.07688228404812       -1.71332675772465       -1.55951902669539
H           -0.85550923662328       -1.10864612279097       -0.07883019638311
H            0.69222736086023       -1.95777530113371        0.01514843828170
H           -4.52381935869136        2.89282078571113       -0.15025350483860
H           -3.79964890094580        3.03007553933460        2.80460306183956
H           -4.83669973703034        1.81979795031943        2.04322874551847
H           -5.32318151320056        3.51679965741948        2.07278067603600
H           -2.59616447219344        4.78173971607105        1.29217258759499
H           -2.95517253556182        4.79959916299605       -0.43623441572983
H           -4.21211067963136        5.18714068532849        0.73339003516898
H           -0.79114636451414        3.13274814552588        3.03740938945189
