72
 energy: 4.182405072333 xtb: 6.6.1 (8d0f1dd)
N           -1.52673995033750        2.85722280079552        2.28001355739032
C           -1.55447341549458        2.16571454621778        1.23207033189249
C           -2.73156796768522        2.06904152940802        0.29362319867668
C           -3.30821933011098        0.66148588237983        0.36417997177382
C           -4.28230146754346        0.24997921362110       -0.54952005475762
C           -4.81943324743708       -1.02201168317996       -0.51107927513068
O           -5.78345928552484       -1.49583879407778       -1.35571270071118
C           -6.31722080343159       -0.61816664685775       -2.30855585254262
C           -4.37932651035753       -1.93485783057007        0.46973727119455
O           -4.97158318274508       -3.16459150346157        0.43468380523844
C           -4.63060398317163       -4.08587806982640        1.44141635518578
C           -3.42098491439044       -1.52325329581383        1.37619837491131
C           -2.89091605288468       -0.23972504919689        1.32488183228193
C           -2.16552218916563        2.31199755425515       -1.13076423196655
C           -1.25090903663968        1.19129181154474       -1.66925407594777
C            0.04972426493399        1.13191268342850       -0.94539845638723
N            0.66957495320133       -0.04777112248644       -0.57468821957724
C            2.05636227972023       -0.06384464056666       -0.24728632287451
C            2.91877403378918       -0.59649711419404       -1.42354943288461
C            4.35128271745327       -0.50749474767071       -1.04704128460468
C            5.07079330788713        0.64397672191708       -1.29462384983225
C            6.35282774999267        0.77880610504411       -0.81769369611111
C            6.81352998196919       -0.23679914885439       -0.02359941523670
O            7.81438674366043       -0.15891898941771        0.87489688925041
C            8.59990302281293        0.98003237471171        0.80140940971944
C            6.19437684632163       -1.47828429965757        0.08480492212603
O            6.92903112515520       -2.38777071542556        0.77474605610013
C            6.35134291502475       -3.62449889273449        1.05572521901600
C            4.92850126435100       -1.59224739491601       -0.39556718912048
C           -0.01899999371033       -1.30497892490716       -0.61164026102390
C           -3.86522202172771        3.08586183869017        0.59460762452676
C           -4.51060407912653        2.81042031421997        1.95144387616271
C           -3.39551034455652        4.54143987240314        0.53903857693444
H           -4.60466545859600        0.94002643962838       -1.31047968096361
H           -6.77214684735519        0.25697248702636       -1.83118193821481
H           -7.08346468591637       -1.18836863827729       -2.83017676981001
H           -5.56748402864787       -0.27942644950478       -3.03233629835984
H           -4.85657462719446       -3.69516829781329        2.43928723495815
H           -5.24387185107568       -4.96618380894158        1.25502964864366
H           -3.57294163559174       -4.36756340323489        1.39675961890839
H           -3.06697042684660       -2.19723092581811        2.13462988467415
H           -2.15066169472245        0.05296072760113        2.05225793633132
H           -3.00103535942742        2.44822093232927       -1.81970872367178
H           -1.59105125859112        3.24171490262057       -1.11674003012015
H           -1.78186659426393        0.24437111507393       -1.61656590342792
H           -1.05146840882447        1.39911615394861       -2.73157869406002
H           -0.68410488152741        1.62393646866948        0.81741012620886
H            0.71394092786275        1.97291911637818       -1.09401564468922
H            2.22387526663064       -0.67777022148369        0.65284986648675
H            2.34959139015652        0.95856842765953       -0.00864833213604
H            2.72613918478813        0.00885523370132       -2.30920131097120
H            2.66002481349203       -1.63361859589784       -1.65828232975044
H            4.63551931167687        1.47923313386794       -1.80897195154605
H            6.90738317667717        1.67862890717318       -1.01414187939943
H            8.08903701219809        1.86669911677196        1.10578457436181
H            8.89171196915449        1.23439964528141       -0.17836138805644
H            9.48357819924162        0.78126787871414        1.38557109042567
H            7.11731808345519       -4.17692157142185        1.59855381953160
H            5.47317039610369       -3.49159759762364        1.68386852911189
H            6.06122520039764       -4.16652197045064        0.15311667975453
H            4.36997141679021       -2.48571293562858       -0.22712448724562
H           -0.19699868025703       -1.65583319701819       -1.63647331388900
H           -0.97798488565765       -1.22224613181600       -0.09975223392226
H            0.58002706864085       -2.04916437650617       -0.09196807769314
H           -4.63449467913954        2.95056675491253       -0.17880901224938
H           -3.77760854588423        2.93694211990034        2.74147566868500
H           -4.88845423788507        1.79375558114461        1.99769341209025
H           -5.34280998245127        3.49197921465963        2.10898620887474
H           -2.60878102289259        4.70465447014972        1.26987387282170
H           -3.02677603966862        4.80045365653844       -0.45022603199132
H           -4.23616108087212        5.18982188594201        0.77721878097186
H           -0.66804184375295        2.85332297520228        2.82765649815442
