  25
        -42.00323422
 C          2.1760325578        1.6580489355        0.0370303534
 N          2.0931022339        0.2562978313        0.0646226195
 C          5.1478273093       -1.0879296436       -0.3061211788
 N          0.8459203633       -2.4074053793        0.1286728089
 C          0.1689312584       -1.3466632818        0.0744036443
 C          0.8329697575       -0.0568883062        0.0511877809
 C          0.0424915178        1.1384461502        0.0162218779
 O          0.8291559717        2.1886992399        0.0095233914
 N         -1.2743316961        1.1389908947       -0.0038252465
 C         -2.0696151318        2.3512795680       -0.0335833201
 C         -1.9823455312       -0.1011728391       -0.0118182506
 O         -3.1797335359       -0.0837449620       -0.0539592059
 N         -1.2295367418       -1.2527424953        0.0290590789
 C         -1.9764507903       -2.5049374345        0.0170856235
 H          2.6985431884        2.0451862731        0.9234471691
 H          6.1392320428       -0.7000825031       -0.4275170444
 H          2.7199070906        2.0130280956       -0.8484334592
 H          4.7795504105       -2.0869349383       -0.1925679499
 H         -1.4064610699        3.2116199247       -0.0300441841
 H         -2.6936335445        2.3551190443       -0.9274626008
 H         -2.7280316602        2.3737420520        0.8354690079
 H         -1.7975857287       -3.0600454242        0.9393176530
 H         -1.6818533591       -3.1072072338       -0.8430628817
 H         -3.0368639455       -2.2731792879       -0.0567469202
 H          0.3898908658       -3.3086396604        0.1502558519
