25
 energy: -42.132387270002 gnorm: 0.001821621459 xtb: 6.6.1 (8d0f1dd)
C            3.22018876041949        1.20269173196583        0.01907762130704
N            2.23401452850782        0.15995891706175        0.00056232332632
C            2.45905334693414       -1.17536865139472       -0.00576832085881
N            1.35308719376016       -1.88466723953028       -0.00549171521790
C            0.34701985595324       -0.98363264664004        0.00228049807723
C            0.88166013331287        0.31550949302219        0.00698335085208
C            0.04155037407042        1.48847859093487       -0.00200494926638
O            0.42637904026145        2.63584064598264       -0.01532396727906
N           -1.31158020478628        1.14879964317222        0.00242686523727
C           -2.27975622581547        2.23087710138433       -0.00244611026757
C           -1.86170263938028       -0.12757599459802        0.00522211266127
O           -3.05286661966151       -0.29643643991106        0.00787148614349
N           -0.97815376847595       -1.21262299667682        0.00354208961041
C           -1.50014841100567       -2.55749164624834       -0.00108197921784
H            3.72314735197777        1.22995797912813        0.98819864124065
H            3.96760055725069        1.02579310483615       -0.75483827945413
H            2.73076945212062        2.16166383504465       -0.15168506503192
H            3.44166818066412       -1.60563983570911       -0.01188276267496
H           -1.74085672557015        3.17596655162294        0.00554061590263
H           -2.91103576208040        2.16137077327055       -0.89026333125543
H           -2.92696833561668        2.15381052514943        0.87304781543961
H           -1.14100859529491       -3.09471083011221        0.87753358393431
H           -1.15658553229376       -3.08300817267681       -0.89298769126823
H           -2.58775419648132       -2.50711401926961        0.00831575062944
H            1.78270975532956       -4.74421187820858       -0.03565696466950
