25
 energy: -42.170976793342 gnorm: 0.009201693458 xtb: 6.6.1 (8d0f1dd)
C            2.85601056795277        0.89464913669209       -0.77034772528641
N            2.02025356156867       -0.12834023006398       -0.18348518940656
C            2.60694832339345       -1.27807019182393        0.29170321932100
N            2.13776482072924       -2.16486734710459        1.04739993039089
C           -0.40857298549484       -0.76489332140591       -0.09187286430518
C            0.68402862303712        0.14426076402746       -0.04478838468459
C            0.15597516107221        1.49310867872004        0.14927824914519
O            0.74751924102154        2.54270432595390        0.26482214578714
N           -1.23723697859970        1.36294630186648        0.23005967321762
C           -2.12441399804488        2.46615409785925        0.48419068651733
C           -1.65934319877960        0.06710278812583        0.06999716077517
O           -2.79787310893433       -0.32270893944643        0.07642669781134
N           -0.36944605370163       -2.03407853928919       -0.24334268794329
C           -1.41140887077366       -2.95788288074227       -0.36352492739703
H            2.90572277212737        1.77178171886822       -0.11615600698901
H            3.86259441126447        0.51270679825600       -0.92797150701959
H            2.43963171315244        1.22005821945632       -1.72559928733160
H            3.64275655396202       -1.40571944845900       -0.01492999160649
H           -1.54152395640792        3.29148798097457        0.89613111197037
H           -2.61021235179306        2.79409186575192       -0.44056428544174
H           -2.89805728618000        2.15446487688782        1.18799399800261
H           -1.55673563740309       -3.46744647904937        0.59929998026816
H           -1.11641485696858       -3.72295845599773       -1.09095147170424
H           -2.36313127063140       -2.49368352411874       -0.66605569181489
H            1.19559631852970       -2.15662965433572        1.41345878562332
