25
 energy: -42.151806030287 gnorm: 0.008776681447 xtb: 6.6.1 (8d0f1dd)
C            3.24541770785830        0.98645261851963        0.04207056501360
N            3.40511851046886       -0.36474559736183        0.01637506500106
C            2.66567411691992       -1.36948934477114       -0.00564900558973
N            1.28367159153110       -1.52843203873117       -0.01691367199605
C            0.18465483168320       -0.71949344842571       -0.00676274758979
C           -0.04153799825790        0.67845714337921       -0.00887463024138
C            0.77555939243832        1.78619311845732       -0.01437775838970
O            0.73649549166555        2.96685201667127       -0.05165728354550
N           -1.43643949152769        0.86284016804031       -0.00494046987805
C           -2.17284802341528        2.10042792093327       -0.00711857024520
C           -2.06453329303671       -0.34803154082225        0.00030305758535
O           -3.23705423240117       -0.58456236214559        0.00710154762124
N           -1.03292620067858       -1.31236830172110       -0.00156957109778
C           -1.34286103749816       -2.71872812904932        0.00221444651553
H            3.66631271781464        1.41593764736727        0.95473784374992
H            3.71061650817004        1.45420927378714       -0.83005992451509
H            2.10990193965822        1.32604428434133        0.02121749659936
H            3.16961314365981       -2.32716205772610       -0.01953023502930
H           -1.49785306629139        2.95125488873582        0.02461995773831
H           -2.78668288571888        2.15776700101943       -0.90754348685251
H           -2.83465604008657        2.12732470365402        0.85965437198587
H           -0.95357825192300       -3.21079107821096        0.89529319274317
H           -0.97245087154013       -3.21144952791136       -0.89860200046757
H           -2.43150228857867       -2.79340298168120        0.01317054330886
H            1.01231924318628       -2.50686583474874       -0.03198711452404
