72
 energy: -4.563494100048 xtb: 6.6.1 (8d0f1dd)
N           -1.59710167162552        2.88609764032468        2.23872807967358
C           -1.59978977276690        2.24833488248287        1.15547250487055
C           -2.76916254098770        2.10462225586931        0.20505589183112
C           -3.28621346847421        0.67032283152749        0.28221177135273
C           -4.27848064798780        0.26763352800223       -0.61177127298954
C           -4.85088236130921       -0.98683446049095       -0.54702304311057
O           -5.83054884731352       -1.45264804868885       -1.37509326230904
C           -6.37634059501394       -0.57774543636170       -2.32409698150328
C           -4.42468849759501       -1.89573255480625        0.44591681959049
O           -5.04986583005799       -3.10995809137447        0.43844934707905
C           -4.72492081253913       -4.02646594268920        1.45086402127401
C           -3.44215346179169       -1.49828843549561        1.33237329729063
C           -2.88058747638416       -0.22709856283620        1.25249445580945
C           -2.17348834729467        2.35558921600691       -1.22477686498392
C           -1.24346022926436        1.21293124431623       -1.72654663628205
C            0.04000953667967        1.14099911381680       -0.97341533569633
N            0.65306407842499       -0.04654144550571       -0.58477537067262
C            2.02306761745446       -0.04665690292696       -0.18070448559617
C            2.96376562776552       -0.56753456115560       -1.29209160035197
C            4.38732101844672       -0.45277788105307       -0.85119670021643
C            5.10656013373112        0.70964389533758       -1.05925085965966
C            6.41528951473144        0.82478279491539       -0.61098018882083
C            7.02406741857471       -0.22068996618648        0.05870959377074
O            8.30084085773874       -0.21693041642088        0.53400341321486
C            9.09358047079754        0.92121456268936        0.31350857797954
C            6.29610569221957       -1.40893962364116        0.28762202718375
O            6.97609283132474       -2.38717679608433        0.95074787227253
C            6.33535306239073       -3.61337469568682        1.18616061098801
C            4.99373704914886       -1.50558510924883       -0.16448722728430
C           -0.03625344294895       -1.30521572947662       -0.62628927649221
C           -3.99072747509864        2.98238643960554        0.63818545340444
C           -4.49958228102371        2.62255307106000        2.03178570928243
C           -3.59247683910875        4.46682780934233        0.63702005338656
H           -4.61070768907422        0.95817447634666       -1.36720089912917
H           -6.80803412506417        0.30988165975687       -1.84976373167235
H           -7.16353836383840       -1.14435747428359       -2.82072018387514
H           -5.63117822002270       -0.26582152131683       -3.06180634431479
H           -4.92975156271178       -3.61807251476106        2.44505910204148
H           -5.36550789351511       -4.89021542715800        1.28091540025657
H           -3.67419249846436       -4.33561770909750        1.40007275238544
H           -3.10049240170475       -2.16674277560904        2.10616985641673
H           -2.12888712774883        0.05303289506486        1.97376390410232
H           -2.99847003707770        2.46021493353552       -1.93044203203088
H           -1.59129146108362        3.28368332958921       -1.24471911927126
H           -1.75700060609444        0.25376998596777       -1.67733380917776
H           -1.05692095179232        1.41136550704057       -2.79309384995076
H           -0.68347608427502        1.80250163608725        0.75561621038828
H            0.69202165717208        1.99279700255193       -1.03320699828837
H            2.14909348968716       -0.66559959167780        0.71754354289342
H            2.31657158139590        0.97342603934059        0.06846458668282
H            2.79781560877533        0.02344421995036       -2.19245416910716
H            2.71219899427474       -1.60607741147922       -1.51558852612592
H            4.65383273885999        1.53453978696144       -1.58700604204081
H            6.95740868002061        1.73846988284381       -0.79662380570481
H            8.67127464297844        1.80796061614604        0.79722238011330
H            9.22799710295966        1.12036152342484       -0.75578088760363
H           10.06016032825196        0.69658959633362        0.75984402937934
H            7.06750130598688       -4.23692080483453        1.69791586585394
H            5.45529890165023       -3.49309487114028        1.82738896564108
H            6.04025492504339       -4.09819199009435        0.25036751667300
H            4.43017569924276       -2.41046337142904        0.00144297366905
H           -0.20351591549787       -1.65140382252084       -1.65380361207525
H           -1.00547760790763       -1.22505680690781       -0.12971673116166
H            0.55813199792491       -2.05287711086939       -0.10224429507828
H           -4.79759133428148        2.83048891771689       -0.08719522041267
H           -3.67421653567724        2.70608197092245        2.73375240811288
H           -4.88544568315372        1.61121660630446        2.07128950037150
H           -5.29964060468796        3.31271175710710        2.30818180292246
H           -2.81539243007876        4.64135350045551        1.37771217865249
H           -3.22429048165687        4.77839843967564       -0.33296914864407
H           -4.43992913926192        5.10006988509732        0.87784186238565
H           -0.71331430828290        2.90481732809737        2.73545394307419
