72
 energy: 18.914098671363 xtb: 6.6.1 (8d0f1dd)
N           -1.78710839953323        3.07871719915782        2.17788996382049
C           -1.65462257306933        2.48005662147704        1.07437533814637
C           -2.75732834692284        2.14623161900428        0.08705972451183
C           -3.19676067937766        0.69240201556388        0.17491844581334
C           -4.20476229522570        0.29509167809752       -0.70763743072006
C           -4.84411503200688       -0.91855212475525       -0.59089337359570
O           -5.84629239498489       -1.36740537070415       -1.40068086964165
C           -6.33678227268489       -0.51112990127354       -2.38681383243053
C           -4.47777239517248       -1.79757521006366        0.45426485441706
O           -5.16120229128447       -2.98407523254331        0.50433012546111
C           -4.84987518469487       -3.87702341163807        1.54406855374634
C           -3.47682280613053       -1.40932831411112        1.32503032332490
C           -2.84063979690643       -0.17593082666918        1.18753894089062
C           -2.12472470863681        2.37846949217117       -1.36313305685502
C           -1.17694112889828        1.24687037089327       -1.88233867552465
C            0.13139598626866        1.15218937625018       -1.16752691027806
N            0.71961945947902       -0.04551920576792       -0.71519652127728
C            2.07579973542029       -0.06038643630971       -0.25995960256750
C            3.03167694931641       -0.62262780255439       -1.33394035937214
C            4.44952548802172       -0.49841666096810       -0.87696585953805
C            5.16929799607947        0.66205151098928       -1.09426667534680
C            6.47463576101714        0.78514065478467       -0.63606566432473
C            7.07979040024308       -0.24671094739730        0.05809301608240
O            8.35355978345597       -0.22824998678820        0.54372155287320
C            9.14482420946857        0.90741025014685        0.30076215484752
C            6.35120294951913       -1.43150041363816        0.30098798125424
O            7.02386449221062       -2.39718932783195        0.99209067527443
C            6.37542353688020       -3.61382186613471        1.25420604352351
C            5.05276829007370       -1.53657015524375       -0.16496065346113
C            0.00055481684487       -1.29378796656376       -0.66391527250479
C           -4.18269583114714        2.77255587289330        0.78374286873426
C           -4.47265900858339        2.29134380058852        2.19841872037259
C           -3.98336571899165        4.32589136301477        0.82184924993434
H           -4.51240779637126        0.97899841900940       -1.47553013997086
H           -6.72940508961453        0.41310599344603       -1.95023492795405
H           -7.14155265411780       -1.06315530877873       -2.87243029369724
H           -5.56546861015561       -0.26109184654038       -3.11804954738634
H           -5.03177407069136       -3.42681166881951        2.52263778525341
H           -5.51526948538843       -4.73011370823195        1.41910330453548
H           -3.80740845884902       -4.21718195218311        1.49800653776847
H           -3.17723169001680       -2.06268924802455        2.13110303581447
H           -2.08344917719860        0.10625277370794        1.90278531600190
H           -2.92791818455376        2.50112401919443       -2.08278897782861
H           -1.50238239901830        3.27809660327390       -1.40806492850819
H           -1.66463988091340        0.27729342702504       -1.81887002061774
H           -1.08356962774511        1.48872679285234       -2.96051959461558
H           -0.66119765363102        2.25211124535483        0.67839098826799
H            0.80320794289279        1.97729332880651       -1.23256974095012
H            2.20185055932772       -0.65942813919266        0.65365497418630
H            2.38302652735861        0.96005779711023       -0.03296788646116
H            2.88014279291210       -0.06238001630760       -2.25642239413734
H            2.77896004456167       -1.66801788330565       -1.52607773226984
H            4.71993089407427        1.47591570640967       -1.64078434886546
H            7.02180835500350        1.69354767127147       -0.83265808842929
H            8.71687571378767        1.80278970679917        0.76174948720580
H            9.28575741398953        1.08254006032652       -0.77199269673221
H           10.11056144561186        0.70432918044606        0.75711171131140
H            7.09632671344875       -4.23401757419609        1.78711488798556
H            5.49240217849545       -3.47111211313603        1.88695614932528
H            6.08572290209436       -4.11805017567993        0.32736430976858
H            4.49027856271549       -2.43990208890843        0.01373822091072
H           -0.15887550710422       -1.71110310257760       -1.66516258024973
H           -0.97926064160275       -1.16952018032761       -0.19462200811933
H            0.56575013736191       -2.01334082101594       -0.06769054201054
H           -5.03019289283955        2.52355989978658        0.13783388287805
H           -3.53926843203646        2.27518498228946        2.76674213676528
H           -4.89030233213685        1.29839852451639        2.22356866543586
H           -5.21261525743593        2.97433611421841        2.63656888317255
H           -3.26334526178523        4.58851173696751        1.59767455949610
H           -3.60957744727718        4.71345791129475       -0.11404487922775
H           -4.88425732990034        4.89050137822031        1.00689179121239
H           -0.91783566492058        3.23980299586599        2.67426485694710
