72
 energy: 32.832328971614 xtb: 6.6.1 (8d0f1dd)
N           -2.02050930728247        2.71976163762538        1.94939661720828
C           -1.65713926157402        2.77282737678425        0.63693485493021
C           -2.18690283340764        1.99442271166103       -0.33166300821566
C           -3.00654513779430        0.80919577665872       -0.04476210992067
C           -4.03768272684121        0.40424767597902       -0.90401321496446
C           -4.80789002009109       -0.71330021144423       -0.67429677030151
O           -5.85579416544077       -1.12928907114637       -1.44458478065341
C           -6.23021017243570       -0.35203392037429       -2.53633807882290
C           -4.54749860118538       -1.52230340149766        0.45623945243208
O           -5.36401601797458       -2.62220272790963        0.62482906923205
C           -5.15303940832309       -3.47595593323937        1.72957898135890
C           -3.50142657668987       -1.16213351617254        1.28861365325896
C           -2.73589765751928       -0.02742747807389        1.04349970900272
C           -1.76168963011519        2.23285347850194       -1.75523802145880
C           -0.91046808526594        1.06538816110631       -2.29381395674000
C            0.38660836949366        1.00559694901815       -1.60871286553797
N            0.84059081266511       -0.02780172930465       -0.84182702149703
C            2.20578902140623       -0.04839276383392       -0.41830456331462
C            3.18170434433973       -0.76413252668712       -1.38727641307166
C            4.59039267640217       -0.61769324667301       -0.90738944877209
C            5.31381658980437        0.53267238833260       -1.17582538971316
C            6.61244922887986        0.67887306852099       -0.70828524831451
C            7.21077042061822       -0.31441318424146        0.05001415529224
O            8.48068671758469       -0.26845442069285        0.55276883613296
C            9.26931604205718        0.85585494372363        0.26268463140381
C            6.47830931704124       -1.48381102993501        0.34974282001878
O            7.14251115753633       -2.41372704791795        1.09840837615395
C            6.48806656142777       -3.61299516387577        1.41791889935129
C            5.18548975693029       -1.61388154847277       -0.12789818471878
C            0.09882498953315       -1.25347188122451       -0.71954608333719
C           -5.12970898487884        2.46100817302073        1.64849149773547
C           -4.73258002675468        1.81162421307745        2.75082728767715
C           -4.88278302473768        3.93315306914164        1.45053653953850
H           -4.27445054095217        1.03867599526148       -1.73215340184763
H           -6.52388503261059        0.65225293187280       -2.21187747201026
H           -7.07916878827500       -0.86602012177041       -2.98969568797921
H           -5.42038630558137       -0.26382783815940       -3.26122852753765
H           -5.29506332003179       -2.94461700914883        2.67144108069109
H           -5.90102946252911       -4.26917580057729        1.66517522664465
H           -4.15166187134649       -3.93005678201912        1.73143364254575
H           -3.28496070859546       -1.77143138001155        2.15834067749778
H           -1.93309642366558        0.21150786484631        1.72606119421121
H           -2.64688558075571        2.36097182998734       -2.39656301804193
H           -1.16508138326759        3.14786791023379       -1.82506806206169
H           -1.46763782533257        0.13814784315936       -2.18549936866237
H           -0.75738944627495        1.27431884906135       -3.36256751671407
H           -0.82128199362808        3.39358869590005        0.32539307650098
H            1.02640309887976        1.85563846338664       -1.73082125782209
H            2.26817563985445       -0.52536903226369        0.56091610695764
H            2.53165393476646        0.98391689910483       -0.29206370642747
H            3.06774152380261       -0.30687431851268       -2.37098270246730
H            2.91360911474368       -1.82242290710123       -1.45570339283672
H            4.87333878997066        1.31524024571477       -1.77451623030627
H            7.15824029342356        1.57726648317997       -0.95077948122044
H            8.82933248701037        1.77185259571532        0.67066277908626
H            9.42438864027560        0.97860641647659       -0.81552718285043
H           10.22957504529155        0.68122484091177        0.74394381169607
H            7.20580471712376       -4.20070694170276        1.99065148186063
H            5.59971259093379       -3.43748836053396        2.03472775984839
H            6.20459721342220       -4.16874203850478        0.51756748206012
H            4.61743916993871       -2.50376948102318        0.09896894784550
H           -0.01857380019016       -1.79585241804594       -1.66624016241789
H           -0.89321121756196       -1.04312022977493       -0.31268907719752
H            0.62282828922611       -1.89895589855230       -0.01829079172734
H           -5.62211301870134        1.92437846997495        0.84808843448001
H           -2.96800276547926        2.32935646873476        2.12055896652051
H           -4.93821578570067        0.76614705106452        2.85203512043696
H           -4.69185719132799        2.41143033582142        3.60685251001723
H           -4.30178413080161        4.36722313147602        2.25927573004974
H           -4.42974140912228        4.34007787899273        0.56646930286252
H           -5.85515947640544        4.35877820246179        1.39610202303930
H           -1.72686562231253        3.55026918745499        2.45635894682352
