72
 energy: -6.274945312938 xtb: 6.6.1 (8d0f1dd)
N           -1.54323631651710        2.82553637255245        2.24009427590479
C           -1.57656850869691        2.18728612393747        1.15767749817080
C           -2.76025517289454        2.08211532835867        0.22895371690485
C           -3.30674084065357        0.66116927136894        0.31035824816468
C           -4.29397297940960        0.25850280998236       -0.58943595253636
C           -4.85061548868495       -1.00427593037668       -0.53704245732666
O           -5.82479540169300       -1.47202921315067       -1.36958422819817
C           -6.38612434260567       -0.59351217038900       -2.30873270307944
C           -4.41109156794455       -1.91959344389924        0.44424388340348
O           -5.02110126961639       -3.13969535639275        0.42333572845896
C           -4.69389227853400       -4.06347134373978        1.42855427327783
C           -3.43241819949756       -1.52150119556758        1.33430637702457
C           -2.88751574339831       -0.24341749611562        1.26863430265183
C           -2.18586011979897        2.32619801145151       -1.20227962444897
C           -1.25395250683802        1.19447521814455       -1.69496650930047
C            0.01974416437354        1.13555053287334       -0.92840274104246
N            0.64013763107375       -0.04691319140070       -0.56463164471277
C            2.01121576563836       -0.04172639229940       -0.16711285252925
C            2.94808944551776       -0.55414757823787       -1.28464877531852
C            4.37230101928454       -0.44247707264878       -0.84467739554281
C            5.09069341252923        0.72070998169287       -1.05058947586397
C            6.40043276370714        0.83387314171291       -0.60630226448674
C            7.00986960753590       -0.21451191505830        0.05849643361801
O            8.28737801738975       -0.21401099750496        0.53144644201377
C            9.08074791889217        0.92457177421531        0.31679409023576
C            6.28233355361334       -1.40431410221632        0.28397687366302
O            6.96410028255271       -2.38479146626201        0.94081537990628
C            6.32587876970845       -3.61369040029977        1.16971353372181
C            4.97891515609642       -1.49904599475487       -0.16432292179500
C           -0.04437464542221       -1.30612614737208       -0.62238292757717
C           -3.93353732321528        3.03205505031745        0.60876563615867
C           -4.49914664444476        2.70351967407389        1.98928058677141
C           -3.49142038285812        4.49795549658798        0.59339809821324
H           -4.63344471843181        0.95194823555841       -1.34041640802363
H           -6.82816601396435        0.28438189821707       -1.82564379459674
H           -7.16902213766780       -1.16440127827878       -2.80670672309977
H           -5.64952501045662       -0.26672012485986       -3.04977043560024
H           -4.90521753357771       -3.66679874400365        2.42672303827038
H           -5.32817302457117       -4.92931008825437        1.24585667801688
H           -3.64177863201531       -4.36635657108549        1.37682043337249
H           -3.08289353142155       -2.19366038115428        2.10103899779685
H           -2.13715736839069        0.03660310316641        1.99144404818871
H           -3.01454316314976        2.42223872445184       -1.90691844944592
H           -1.62032170601302        3.26196459704767       -1.21988606736998
H           -1.78112009807334        0.24289230587747       -1.64947978207511
H           -1.02815613342988        1.39036257078294       -2.75307465903658
H           -0.68812938240632        1.70938478243623        0.70508224732561
H            0.66719010269223        1.99295228682617       -0.98587551602474
H            2.13360124452400       -0.66803182487165        0.72499387191821
H            2.30597443750767        0.97699033385001        0.09120467909716
H            2.78072497133267        0.04487846483700       -2.18013566310173
H            2.69561612090218       -1.59076643415506       -1.51419750905288
H            4.63738329698946        1.54826090222090       -1.57454786344074
H            6.94060404832930        1.74865536032687       -0.79156767345293
H            8.66068263414281        1.80930510987122        0.80669027998478
H            9.21421527712648        1.12991621734433       -0.75123017568686
H           10.04726191095717        0.69391026886623        0.76095304310004
H            7.06163390895983       -4.23692333559210        1.67636649273830
H            5.44671462842235       -3.49990380536019        1.81337954747357
H            6.03027733743310       -4.09510003299181        0.23189229170879
H            4.41517783073829       -2.40476380667919       -0.00226566604430
H           -0.21387294587833       -1.63616893492838       -1.65417470538005
H           -1.01066560264703       -1.23563736264296       -0.11756951750442
H            0.55925770481421       -2.05684050510802       -0.11560786407185
H           -4.72711972947831        2.90045232649371       -0.13631314075484
H           -3.71031609185919        2.81309032623580        2.72770486192160
H           -4.88012735613195        1.68787153716585        2.02945017802638
H           -5.31318020024176        3.39100604438306        2.22127673910619
H           -2.70387499489840        4.66138727670386        1.32425454518966
H           -3.12942768054135        4.79355593020495       -0.38557209217152
H           -4.32930399716525        5.14304482200624        0.84390570017886
H           -0.65655255494156        2.82898037256357        2.73553790827764
