72
 energy: 67.782013105424 xtb: 6.6.1 (8d0f1dd)
N           -1.94636734525587        3.11996300327673        2.04827926526348
C           -1.67252162143702        2.64486757705414        0.90883189176075
C           -2.55932373616847        2.09135831946345       -0.11034691738620
C           -3.11969688004075        0.74133620629618        0.07901291811155
C           -4.13478267063286        0.32632440190721       -0.79621576715358
C           -4.83038005102619       -0.84411311019725       -0.63002682795450
O           -5.85218607596212       -1.28004754460969       -1.42733369865144
C           -6.29422038998909       -0.44739872577717       -2.44860748263393
C           -4.51660564590013       -1.69190293602850        0.45904387661998
O           -5.25824672471880       -2.85149594498968        0.56039145412858
C           -4.97698827204597       -3.72448268718771        1.62717647640349
C           -3.49569985636610       -1.31296629935369        1.31071216380570
C           -2.79644493902066       -0.12101179008140        1.12453751186642
C           -2.00419974907271        2.33367518758384       -1.53187488002693
C           -1.06264535518879        1.18440380818657       -2.04127472484107
C            0.24365982635800        1.11399332949710       -1.36198873043143
N            0.79180828271779       -0.04771494694526       -0.83688015066393
C            2.13331101302299       -0.06073722304138       -0.33541916283991
C            3.09626362035783       -0.67744227139476       -1.36731891599747
C            4.51058266164159       -0.54485724656053       -0.89576414233996
C            5.22947661852938        0.61240613197332       -1.12830426736652
C            6.53207268577063        0.74379731989279       -0.66334937669002
C            7.13401161531966       -0.27308652351063        0.05637775427752
O            8.40369525897489       -0.24174864555204        0.55033122231959
C            9.19533757541719        0.88976750114350        0.28679041792840
C            6.40421962728792       -1.45396629353902        0.31739980038662
O            7.07028134761784       -2.40526184315543        1.03338025246308
C            6.41764971793548       -3.61450900086226        1.32086208225894
C            5.10896683099430       -1.56819865052152       -0.15949862683934
C            0.04066013932863       -1.27709526191252       -0.69871315466279
C           -4.52494487592494        2.63624404940874        1.08233931122743
C           -4.45148264110235        2.00146367098080        2.40746599044528
C           -4.35530016830332        4.16687217000620        1.05394881179273
H           -4.41533008980535        0.99971389970409       -1.57988409536605
H           -6.64603883822930        0.51096172611737       -2.05187662215928
H           -7.11730894984283       -0.98346253463451       -2.92251619018323
H           -5.50327024499006       -0.25942000164664       -3.17563891355417
H           -5.13958205465282       -3.23742109059633        2.59044885905693
H           -5.67321160887093       -4.55872585878570        1.53561987291299
H           -3.94700837000252       -4.10783275180737        1.59704668688110
H           -3.23310190388226       -1.94999884482361        2.14573613269425
H           -2.02348431770997        0.14736045544247        1.82967150237777
H           -2.82828375966150        2.45297391371915       -2.23319479818571
H           -1.39165473852410        3.23720389842374       -1.59088582144549
H           -1.57586686368103        0.23443970230720       -1.96577164268297
H           -0.93464464928002        1.42526714239563       -3.10519737980586
H           -0.65961726347731        2.71179983627074        0.48777143064438
H            0.90643230226178        1.94115329528007       -1.43095599396834
H            2.23739459432964       -0.62444098530942        0.59840183298675
H            2.44412424787191        0.96434963801614       -0.13602460622129
H            2.96081284126597       -0.15347750033125       -2.31348218054223
H            2.84079456251698       -1.72997297871971       -1.51882722623971
H            4.78417311449453        1.41496619518617       -1.69493002988157
H            7.07945908864807        1.64815902097742       -0.87609770715315
H            8.76212450417735        1.79314968920306        0.72598297497489
H            9.34182947198461        1.04196168598280       -0.78868105736784
H           10.15948654491239        0.70234502230599        0.75299527850090
H            7.13415972201074       -4.22419706198773        1.87185812061143
H            5.53274755345974       -3.45496056473908        1.94668553027840
H            6.13115928077957       -4.13932073857732        0.40427968095399
H            4.54570829780511       -2.46784779665268        0.03684247429853
H           -0.10948465448860       -1.75668648660738       -1.67310972708492
H           -0.94338064943286       -1.11130280640315       -0.24644477965427
H            0.59028945531157       -1.96288533752017       -0.05028525518945
H           -5.26964793972089        2.24077778206198        0.40630620940493
H           -3.38340386977245        1.91829164069780        2.65489007783064
H           -4.89283699862660        1.02265733172191        2.42290165005124
H           -5.06586777976974        2.67193406764814        3.02273508541042
H           -3.68989757332814        4.51406796771078        1.84604012199669
H           -3.97191359410389        4.59663455470891        0.14055340593049
H           -5.29654466002822        4.67890693465854        1.15400802383503
H           -1.16041141459401        3.51200718734364        2.56180404575458
