72
 energy: 26.909107582321 xtb: 6.6.1 (8d0f1dd)
N           -2.04760357071343        2.70984923732781        1.92440248434186
C           -1.65319320307903        2.77647953062506        0.61271909453365
C           -2.14148199995613        1.97937575668979       -0.35801605409501
C           -2.98079595793701        0.80827868781200       -0.06736025879348
C           -4.02341333597468        0.41744909190174       -0.91954241096447
C           -4.80863765845450       -0.68811135118032       -0.67500111962558
O           -5.86000425539468       -1.10203829041676       -1.44356043410169
C           -6.22026615298814       -0.33683283832840       -2.54985526393629
C           -4.55272528316225       -1.49345965027295        0.45897494743920
O           -5.38079768224598       -2.58278169443853        0.63526806274043
C           -5.18078982628129       -3.43294118606541        1.74388118074913
C           -3.50549484478178       -1.13678100111839        1.29058300727552
C           -2.72824591690298       -0.01296071003548        1.03436814919546
C           -1.72289733400009        2.21611516005936       -1.78289526589979
C           -0.88417409272669        1.04459704626508       -2.33115665092512
C            0.41407694043130        0.97871242064486       -1.65522352944082
N            0.85905688187123       -0.03302988974292       -0.85375146762157
C            2.22028581486169       -0.04178415260023       -0.42759886605117
C            3.19636128366386       -0.77685900493566       -1.38456725379045
C            4.60422465861009       -0.63004212983036       -0.90642740819402
C            5.32755315599877        0.51864496865026       -1.18291696912206
C            6.62577832412209        0.66758078229373       -0.71589221948678
C            7.22322262866344       -0.32169422539026        0.04868046073868
O            8.49310395707177       -0.27361630183743        0.55203957696207
C            9.28135839773626        0.84965215182871        0.25823765629781
C            6.49002998544464       -1.48922171135031        0.35638039416060
O            7.15470443358642       -2.41448766500109        1.10966765516404
C            6.50073105829879       -3.61268469225630        1.43349721109955
C            5.19752645876981       -1.62159767019716       -0.12015287319545
C            0.10924352678929       -1.24938383043636       -0.72085054486635
C           -5.21605663121071        2.45026758922665        1.73038805262548
C           -4.79199299179002        1.80306055102674        2.81423386199776
C           -4.96972033821993        3.91207544115200        1.51336780286519
H           -4.25233018107105        1.04517638582285       -1.75587352827403
H           -6.50396106742491        0.67395123973896       -2.24074243702702
H           -7.07353841481383       -0.84645306596000       -3.00001877109622
H           -5.40781887164541       -0.26599419129819       -3.27452763391303
H           -5.32056105683395       -2.89515926366353        2.68178010075342
H           -5.93710565607122       -4.21738411099727        1.67897421250000
H           -4.18580210466672       -3.90009508867463        1.75159877681118
H           -3.29213234018109       -1.74186218952346        2.16316837493697
H           -1.91928405171713        0.22319499637224        1.71075659345037
H           -2.61328840103744        2.34418869371345       -2.41367563629828
H           -1.12555593864891        3.12996919461715       -1.85678040046311
H           -1.44491363440397        0.12114107296330       -2.21815532489507
H           -0.73347878224373        1.24658785117926       -3.40252703125718
H           -0.87020617063435        3.47670885076374        0.31813227538107
H            1.04174710696273        1.83865608831058       -1.75688411085169
H            2.26973932268263       -0.50606722651581        0.55721769790633
H            2.54804793044402        0.99098425930800       -0.31424282624119
H            3.08439166834340       -0.33394954827058       -2.37511635495104
H            2.91887741870613       -1.83235753926840       -1.43518787556569
H            4.88718438103212        1.29720511640248       -1.78706305851845
H            7.17062240811500        1.56508478821022       -0.96392488222474
H            8.84042117563134        1.76757590406629        0.66141291296335
H            9.43804671133209        0.96786581103551       -0.82014464032868
H           10.24079740340086        0.67631878240381        0.74206039001234
H            7.21985796129295       -4.19567489416761        2.00877808049638
H            5.61180497054261       -3.43620183341883        2.04904870074079
H            6.21776248276384       -4.17327624440519        0.53579206497068
H            4.62753431921628       -2.50896949738122        0.11187718523775
H           -0.00335939297549       -1.80240949805713       -1.66108074943980
H           -0.88452993785675       -1.02924251261799       -0.32347847205064
H            0.62654626033643       -1.88827914047348       -0.01010716588672
H           -5.71087890758098        1.91658381551320        0.93056283194966
H           -2.96851792006526        2.33694344458768        2.07268945535309
H           -4.95686867034762        0.75261556223681        2.92970618400961
H           -4.63585619104956        2.37601795852234        3.67808747588940
H           -4.40463201238389        4.35676119067862        2.32393622515281
H           -4.47850883767646        4.26619472233410        0.62884285294022
H           -5.94743567806591        4.31855166374247        1.42219310416242
H           -1.80145468794363        3.54010003926703        2.44373381314702
