72
 energy: 4.287358731077 xtb: 6.6.1 (8d0f1dd)
N           -1.70266763491849        2.98749757273545        2.22142066673495
C           -1.63547165944084        2.37207530189443        1.12605115289162
C           -2.77745969458214        2.13733417116954        0.14621942978104
C           -3.24150102420298        0.68404517454512        0.22383112448040
C           -4.24177635709705        0.28227884489121       -0.66357985357032
C           -4.84916207850486       -0.95192552305310       -0.56971957409685
O           -5.84112631969793       -1.40983467792273       -1.38686356044629
C           -6.35743386400317       -0.54460663995457       -2.35573813812233
C           -4.45292412632313       -1.84615648451937        0.45014499697939
O           -5.10687727016175       -3.04708633832204        0.47167639547698
C           -4.78711805127591       -3.95159678457190        1.49734096323745
C           -3.46161578846700       -1.45221540662375        1.32882649962655
C           -2.86313308783421       -0.19802025564662        1.21748034659558
C           -2.15352578426761        2.37920377382480       -1.28904113285730
C           -1.21642162306286        1.23813284403388       -1.79821763046307
C            0.08554953009818        1.14832709921891       -1.07193473795565
N            0.68686229155466       -0.04761415975335       -0.65102739186559
C            2.04933877004972       -0.05518012695407       -0.21874330943618
C            2.99824669487029       -0.59532525423312       -1.31246774041456
C            4.41893251069642       -0.47530011757517       -0.86448414016562
C            5.13857016961669        0.68615801534733       -1.07669488718535
C            6.44543077317267        0.80528948896537       -0.62256693947421
C            7.05250021789831       -0.23366121663617        0.05873034546209
O            8.32777451167569       -0.22255490798497        0.53932950075323
C            9.11943713384016        0.91461685213608        0.30744951972395
C            6.32417195822907       -1.41997599425163        0.29430963531353
O            7.00040462278326       -2.39241539731442        0.97124968135138
C            6.35518157177628       -3.61352119196256        1.21997160862255
C            5.02391335786373       -1.52076212744780       -0.16511327085954
C           -0.01782744315698       -1.30161800091691       -0.64343132158788
C           -4.09093438541196        2.87754692888716        0.70333880463907
C           -4.49043409160198        2.45488784292774        2.11415224870538
C           -3.79531048260329        4.39981514147149        0.72674083892696
H           -4.56311508692478        0.96970794299946       -1.42367656989043
H           -6.76970463905701        0.36176437141878       -1.90038421136257
H           -7.15278419120901       -1.10431709377316       -2.84763400545434
H           -5.59745870746766       -0.26369013425937       -3.08903426213088
H           -4.98038195102650       -3.52196198812376        2.48378690417564
H           -5.43956321212941       -4.81084809674727        1.35059935995063
H           -3.74000425644716       -4.27483272702026        1.44824542540734
H           -3.14178838869116       -2.11312898601903        2.11991710983056
H           -2.11078276791446        0.08427428188016        1.93786619456101
H           -2.96499869613296        2.49729591504783       -2.00310939573643
H           -1.54526755273265        3.28983524681933       -1.32309128308041
H           -1.70827655252335        0.26845981200412       -1.74061706683205
H           -1.10083293009591        1.45849681226403       -2.87266525204099
H           -0.67162067611509        2.02836834662168        0.74561228182552
H            0.74659242107138        1.98790923403958       -1.13120271713223
H            2.17680535298752       -0.66287829481225        0.68846124814332
H            2.34782920042254        0.96543911686828        0.01826866330825
H            2.83847627154090       -0.01968627513102       -2.22370695264057
H            2.74647034187411       -1.63730828932976       -1.52123772608659
H            4.68736974918421        1.50553035691085       -1.61354729869398
H            6.99052640470638        1.71637080783706       -0.81255849029699
H            8.69389195437316        1.80564822878444        0.77953201086426
H            9.25701214366362        1.10165304454062       -0.76372528996863
H           10.08574948586896        0.70144637820378        0.75879988961747
H            7.08096701849311       -4.23605686541873        1.74259113692461
H            5.47343580179580       -3.48125312282207        1.85660713171391
H            6.06271312464259       -4.10754423709928        0.28846644011319
H            4.46101562855216       -2.42492170740072        0.00685567022973
H           -0.18117179841291       -1.68397627096984       -1.65840669358478
H           -0.99333113015188       -1.19803133398507       -0.16265371382859
H            0.55735976474261       -2.03771199382932       -0.07810230242727
H           -4.92410645961508        2.67753877751966        0.02151684335279
H           -3.60780821229125        2.48768635410369        2.75007219976356
H           -4.88943338509935        1.45258460841576        2.14925919969899
H           -5.26109939464343        3.14306912628286        2.47482215461005
H           -3.04493049467041        4.61345611737089        1.48670968036738
H           -3.42143171529007        4.74745025500215       -0.22624538773276
H           -4.66657617548944        5.00259657655887        0.94229651603648
H           -0.82407785870849        3.07177897458259        2.71824365966767
