72
 energy: 23.041235979855 xtb: 6.6.1 (8d0f1dd)
N           -2.07263160377093        2.69696221186073        1.90225067820742
C           -1.66886397996227        2.78796178737927        0.58451179499709
C           -2.09949070804444        1.96494706975155       -0.38582135623759
C           -2.95575219976561        0.80723696081846       -0.08992613048959
C           -4.01187894311850        0.43366519521284       -0.93192363577605
C           -4.80916652165194       -0.66245212767709       -0.67473642646852
O           -5.86263661581026       -1.07464198596494       -1.44367909010089
C           -6.21057092903905       -0.31999926468005       -2.56231902556530
C           -4.56090532658389       -1.46361492918628        0.46438301969567
O           -5.39928742381342       -2.54338527744700        0.64695901623605
C           -5.20864648497080       -3.38994994860077        1.75919901117516
C           -3.50867582689261       -1.11145674385070        1.29174840640286
C           -2.72043608214915        0.00147203928554        1.02416911517176
C           -1.68540918861394        2.19992165330482       -1.81181879169785
C           -0.85837835175093        1.02460100436869       -2.36884141975155
C            0.44210471703164        0.95269983389983       -1.70527769073400
N            0.87790028867816       -0.04026049769584       -0.87437673317117
C            2.23326882367006       -0.03671820301239       -0.43760941824857
C            3.20564981561418       -0.79117229723279       -1.37772611605973
C            4.61433371294690       -0.64082700148034       -0.90078678389038
C            5.33936987375824        0.50406216201197       -1.18939594127249
C            6.63773203551986        0.65585634926193       -0.72460272769058
C            7.23514657920415       -0.32838032979786        0.04667918157453
O            8.50497486629158       -0.27907168678856        0.55033193171523
C            9.29279374896542        0.84327965998305        0.25340923613981
C            6.50095715364699       -1.49416621197183        0.36144713942102
O            7.16540770113667       -2.41297144139683        1.12015994822240
C            6.51354291164601       -3.61176097685585        1.44838778432721
C            5.20658770402101       -1.62805581515408       -0.10941060272636
C            0.11911166238231       -1.24563848824811       -0.72256994966762
C           -5.29846606910246        2.44496181587307        1.81475565345154
C           -4.85033549582643        1.80036557163620        2.88319645442319
C           -5.05559265445379        3.89982571483412        1.57650812564337
H           -4.23152110507326        1.05240223850423       -1.77903294129037
H           -6.48423904863815        0.69768060551419       -2.26798981201204
H           -7.06751281927407       -0.82614745498253       -3.00798873972866
H           -5.39812483327980       -0.26861481685398       -3.28925936982162
H           -5.34324439096662       -2.84483890103705        2.69307853629507
H           -5.97330208349462       -4.16622445956536        1.69660695522196
H           -4.21964965826736       -3.86866868158775        1.76965750616745
H           -3.29203240382521       -1.71328731464845        2.16404260433941
H           -1.90555578199997        0.23346152148438        1.69319178521919
H           -2.57949751201531        2.32783705429764       -2.43498856255696
H           -1.08651156984125        3.11220891905235       -1.88835250225662
H           -1.42149895282239        0.10412048542125       -2.25018632725872
H           -0.70918756444559        1.21825617230102       -3.44245108393993
H           -0.94348387075711        3.55940922303302        0.31930081630864
H            1.06458197643632        1.81837529076845       -1.78657583499825
H            2.27030863266767       -0.48561462924728        0.55416435759348
H            2.56487093080248        0.99632555534397       -0.33672758291406
H            3.10016806345215       -0.36248937448635       -2.37625720820805
H            2.92546325706143       -1.84538800100008       -1.41534294905381
H            4.90016859522068        1.27867254698670       -1.79949037120156
H            7.18027486692845        1.55277386516697       -0.97940907934336
H            8.85143036184362        1.76292982552735        0.65246143519004
H            9.45177435144261        0.95713985972472       -0.82463186582332
H           10.25007180626021        0.66888444590236        0.74055482423682
H            7.23538286174408       -4.18840362801729        2.02550298712294
H            5.62414872325847       -3.43524982639959        2.06328256782755
H            6.23133047963810       -4.17829326531922        0.55378446526463
H            4.63591735741685       -2.51411449205963        0.12643618951634
H            0.01198134749307       -1.80914841395941       -1.65627217464432
H           -0.87793432778899       -1.01580881192650       -0.33739601828484
H            0.62978567450799       -1.87689646650032       -0.00149196633561
H           -5.79704903733247        1.90994790429299        1.01950825907980
H           -2.98249627486436        2.32214066734559        2.05087860934282
H           -4.97824352314474        0.74593077891194        3.00691697107185
H           -4.59741068467979        2.34946756316559        3.75011705036167
H           -4.50713275759718        4.34878519057347        2.39142765513798
H           -4.51451728441188        4.18405002014983        0.69495773682995
H           -6.03777400654104        4.28885154748651        1.44728996821709
H           -1.89256564118439        3.53076012512528        2.42788185708133
