72
 energy: 73.615864933983 xtb: 6.6.1 (8d0f1dd)
N           -1.96145028974216        3.05607608525527        2.03142077586213
C           -1.67071634348020        2.67348326538309        0.85770194157174
C           -2.48631837500409        2.06789037603312       -0.16601526488331
C           -3.10301872330311        0.76082369566103        0.05555719036211
C           -4.11914136351410        0.33698865737027       -0.81755443088366
C           -4.82684907370730       -0.82320272917879       -0.63880253616090
O           -5.85355350044440       -1.25710504943965       -1.43324483665706
C           -6.28364898132842       -0.43184649669398       -2.46391129275147
C           -4.52440531682579       -1.66372639746166        0.45961849195320
O           -5.28013160593077       -2.81655274569675        0.57271258480676
C           -5.00805120058480       -3.68469273147904        1.64608717667256
C           -3.49831603293315       -1.28647022174871        1.30657549773412
C           -2.78722027798701       -0.10393090497938        1.10969136596207
C           -1.96330856820340        2.31806047603867       -1.57369867937283
C           -1.03087475372069        1.15802052572644       -2.08103425591410
C            0.26954155543408        1.08934417775513       -1.40305066691180
N            0.80944728375651       -0.05275481570716       -0.86302122904555
C            2.14808648440765       -0.05992951533610       -0.35233601929395
C            3.11180981728932       -0.69167863023622       -1.37329199768323
C            4.52552285889802       -0.55673555381498       -0.89877126086801
C            5.24410384711436        0.59947971526156       -1.13663841777609
C            6.54613561213424        0.73315725708372       -0.67055969143123
C            7.14740789423321       -0.27980757524230        0.05563127808730
O            8.41606838650593       -0.24576675597440        0.55107998259477
C            9.20791913178151        0.88465296724478        0.28301375480784
C            6.41722386943350       -1.45940995186986        0.32242535287686
O            7.08205556297493       -2.40685496308401        1.04387942836418
C            6.42885560205446       -3.61453261190742        1.33741024536565
C            5.12243950980683       -1.57600333644055       -0.15581427467932
C            0.05141777754873       -1.27561923162069       -0.70537795027159
C           -4.64921201343219        2.61366193780185        1.18167632283655
C           -4.46381601253680        1.94846344923033        2.46452591678487
C           -4.44600730519064        4.12585276979785        1.11884843992212
H           -4.39277301985196        1.00567126251894       -1.60684596868911
H           -6.62523123033070        0.53474206416445       -2.07792069653341
H           -7.11117637980649       -0.96389031457602       -2.93486049075154
H           -5.48858967142283       -0.25965513545040       -3.19027653789780
H           -5.16635808232492       -3.18920607505139        2.60566184729992
H           -5.71242485691528       -4.51335555011392        1.56155027680024
H           -3.98183124214472       -4.07965431750373        1.62103109586003
H           -3.24326168861023       -1.91989205047239        2.14774670184299
H           -2.00929650309941        0.15910980222919        1.81171342558205
H           -2.79775803291029        2.43660903687199       -2.26709620037691
H           -1.35613302059941        3.22524733284182       -1.63545813248519
H           -1.56324695666669        0.21708707005451       -2.00380608121146
H           -0.89046020341389        1.40179207713993       -3.13989682648560
H           -0.67373084490266        2.83718238982658        0.42617608474451
H            0.92458706330543        1.92591057367155       -1.48025953165188
H            2.24550207790943       -0.60982233532299        0.58861302409767
H            2.45852120053231        0.96703973689403       -0.16266585839243
H            2.98046536813698       -0.17796665593228       -2.32583624070559
H            2.85536475586938       -1.74589561334600       -1.51256909596944
H            4.79979164133302        1.39906048542550       -1.70843987183484
H            7.09322960399789        1.63655366505133       -0.88796209573487
H            8.77349309327333        1.78999639845196        0.71697610878774
H            9.35578712418514        1.03154972073798       -0.79297206330986
H           10.17147361475038        0.69984729272397        0.75172267071713
H            7.14512060328000       -4.22075104586993        1.89246165231191
H            5.54354613957060       -3.45154709244831        1.96168135196490
H            6.14303473802245       -4.14459516084634        0.42351807003920
H            4.55873080916147       -2.47437283252278        0.04538252383262
H           -0.09602353424022       -1.76770547274213       -1.67368406212612
H           -0.93386684974526       -1.09777869355079       -0.25839388569625
H            0.59690186391134       -1.95254960630405       -0.04481963173613
H           -5.32149210733328        2.17148955961072        0.47636041481253
H           -3.37842312401743        1.91689818999298        2.57936340539597
H           -4.89148798928635        0.96458559653227        2.48699001051997
H           -5.02504037995185        2.60981079751881        3.12949234737961
H           -3.79098891873259        4.48599719506809        1.91368671911791
H           -4.05559499920614        4.55830573665548        0.20924739364627
H           -5.39170897149918        4.63193463939389        1.19527262628162
H           -1.23849776589990        3.55203863426121        2.54847632063896
