72
 energy: 20.406524315748 xtb: 6.6.1 (8d0f1dd)
N           -2.07483147554684        2.67287851815871        1.89537958013469
C           -1.69897954740057        2.78910507593914        0.56491709507073
C           -2.05712948129863        1.94690301701493       -0.41260248457471
C           -2.92904548783109        0.80232655405000       -0.11390931632468
C           -3.99804342274996        0.44833219667381       -0.94600146830197
C           -4.80805640137340       -0.63693198517851       -0.67455667393669
O           -5.86353420853967       -1.04692776683901       -1.44153690666620
C           -6.20101655588020       -0.30388024604871       -2.57341490727153
C           -4.56796165855607       -1.43399612063950        0.46954604294086
O           -5.41947646161241       -2.50365758244406        0.65855919105302
C           -5.23643867054508       -3.34661640390555        1.77453836734839
C           -3.51164734534877       -1.08651640952690        1.29377748517048
C           -2.71009571318960        0.01355039759192        1.01316502570901
C           -1.64511578917088        2.18372258442835       -1.84268639628546
C           -0.82777470121154        1.00847192335767       -2.40465080641942
C            0.47146395704758        0.95055934323756       -1.73459899075733
N            0.89833409785657       -0.04642296766848       -0.89684790332160
C            2.24777619159506       -0.03453966395035       -0.44495289965133
C            3.21423175946607       -0.80769658453047       -1.37199715645015
C            4.62376373692982       -0.65227940887665       -0.89432975537114
C            5.34963140091042        0.48901056829962       -1.19403416739395
C            6.64860434120852        0.64383922296167       -0.73265774000324
C            7.24532188014902       -0.33567375163371        0.04404313189708
O            8.51300250894518       -0.28399010157300        0.54621670717150
C            9.30349134141791        0.83688553162240        0.24882098137694
C            6.51176618189643       -1.50034333685254        0.36579521367238
O            7.17521253419425       -2.41140929494994        1.13311422025409
C            6.52551566389419       -3.61102891877942        1.46444682304417
C            5.21596871797807       -1.63553870266598       -0.09945116345698
C            0.12848452927242       -1.24347459840590       -0.72273232534932
C           -5.37480975743511        2.44151869031852        1.90589071350688
C           -4.89996705105779        1.78602177924658        2.95098860219900
C           -5.13457885535170        3.89030395956393        1.64553524284908
H           -4.21148802956236        1.06177541984573       -1.80123403923933
H           -6.46391470835434        0.72078859240579       -2.29467487399854
H           -7.06353258988889       -0.80508057488054       -3.01382450203939
H           -5.38785007860308       -0.27504824374703       -3.30168612151261
H           -5.36427098390443       -2.79493129845428        2.70559121141885
H           -6.00887899429598       -4.11531963639265        1.71493373790437
H           -4.25296108680967       -3.83575043932785        1.78666128137553
H           -3.29562315339855       -1.68339516669529        2.16837740007515
H           -1.88997414739747        0.24320780042341        1.67560355514395
H           -2.54439296096152        2.31327035116883       -2.45567898391594
H           -1.04115745591533        3.09216233567381       -1.92344532652672
H           -1.39257118623313        0.08911002154342       -2.27995704536544
H           -0.68003846930310        1.18843994238575       -3.48227873040601
H           -1.02655401413873        3.61284234412007        0.32763785838414
H            1.09982826244523        1.81916160894592       -1.81366605016165
H            2.27579489688081       -0.46933656418084        0.55556615388460
H            2.58262495976614        0.99890027191365       -0.35862899547407
H            3.11461960633968       -0.39199775277543       -2.37765138003142
H            2.93243865236468       -1.86075921691430       -1.39740596731186
H            4.91295747318561        1.25981915272846       -1.81099907704827
H            7.19096498994418        1.53939212181638       -0.99257564865521
H            8.86238499855933        1.75873842152798        0.64336379203698
H            9.46515227361333        0.94614629544758       -0.82888958075692
H           10.25836656510412        0.66029710223935        0.73973994107585
H            7.24882780486409       -4.18286671160237        2.04409142306620
H            5.63542868608764       -3.43380139603573        2.07814437379690
H            6.24476257714314       -4.18213373161064        0.57205571889012
H            4.64562833362124       -2.52049574857881        0.13933870646267
H            0.02683463574938       -1.81577072626093       -1.65303329497927
H           -0.87138427117147       -1.00531189561572       -0.34680126385482
H            0.63596654059864       -1.86599590624727        0.00761131905106
H           -5.88075864906680        1.90774836250080        1.11516578393840
H           -2.99765588840103        2.27184715820711        2.06018697992864
H           -5.03069125872955        0.73149409145488        3.07046137632147
H           -4.54793298669532        2.31382005499904        3.81260289713669
H           -4.60006893440887        4.34130798244555        2.46688627864403
H           -4.54873241239957        4.10225187734046        0.76814522823409
H           -6.11239749367890        4.28935710613997        1.48066355817110
H           -1.96357988795986        3.51910856630376        2.41312092855138
