72
 energy: 41.767855085647 xtb: 6.6.1 (8d0f1dd)
N           -1.87906877598376        3.15231218461949        2.11162698161830
C           -1.67017826866583        2.57588522097486        1.00549887377135
C           -2.70034104441464        2.13510960241217        0.01244101619119
C           -3.15418254993765        0.70521499891027        0.12672627195670
C           -4.16842855020158        0.30848333423286       -0.75134864440370
C           -4.83778098985204       -0.88390652409034       -0.61145332133571
O           -5.84974733954572       -1.32452005186765       -1.41417356310736
C           -6.31567822185748       -0.47890001667476       -2.41798688530266
C           -4.49885337164200       -1.74706996675238        0.45689834188348
O           -5.21156809335046       -2.91869949773308        0.53386282748462
C           -4.91373793301586       -3.80198380618463        1.58731269600194
C           -3.48771266695341       -1.36465026775617        1.31865166110851
C           -2.81701669667372       -0.15283723801721        1.15647683016418
C           -2.08104548096456        2.36251904067502       -1.44525134645000
C           -1.12841966316447        1.22938349202875       -1.96767508831018
C            0.18031111830314        1.14478150764628       -1.26179431701673
N            0.75471221175506       -0.04636427743971       -0.77772669435453
C            2.10315676602742       -0.06242569877411       -0.29929781007044
C            3.06492679576446       -0.64998904985869       -1.35276558453240
C            4.48026363326408       -0.52175646020388       -0.88797532575614
C            5.19992163335884        0.63754515578223       -1.11131303259201
C            6.50365997157620        0.76477910234878       -0.64927406379489
C            7.10705374221926       -0.25983670318233        0.05760465200911
O            8.37934751241088       -0.23465547026429        0.54776112887910
C            9.17016280649203        0.89918853581334        0.29402958690658
C            6.37805843880112       -1.44284585104656        0.30833587188191
O            7.04728834200953       -2.40170151323907        1.01287029124389
C            6.39622509322002       -3.61423482825240        1.28777941896506
C            5.08156680037391       -1.55257925685454       -0.16393726744987
C            0.01997563961450       -1.28515183150235       -0.68215417626097
C           -4.30078137534213        2.68918299398312        0.90255317655980
C           -4.44804689380793        2.13783745245296        2.29700283186910
C           -4.16791945837937        4.24882645881424        0.93004860465220
H           -4.46250154165752        0.98859622538907       -1.52634450608135
H           -6.68808850039061        0.46256373582583       -2.00075686768269
H           -7.12972216252020       -1.02297332582078       -2.89769059585074
H           -5.53364629493174       -0.25990257123362       -3.14650711317866
H           -5.08548027934077       -3.33239384045102        2.55795122375410
H           -5.59422485031531       -4.64624269599601        1.48010889939401
H           -3.87706936317093       -4.16263348088765        1.54791161643743
H           -3.20829238065405       -2.00902758678554        2.14011627729717
H           -2.05366102768865        0.12611454480044        1.86673066358865
H           -2.88653434449009        2.48583726217544       -2.16172606337291
H           -1.45615355219914        3.25832616337492       -1.49794522059963
H           -1.61999477750561        0.26403455914169       -1.89531929332533
H           -1.02640046698136        1.46769563725091       -3.04772974653971
H           -0.65809787813586        2.47505320274208        0.59710082013007
H            0.85691606654462        1.96152822120448       -1.33336389372284
H            2.22162824637920       -0.64860677215905        0.62287532053405
H            2.41363415190299        0.95990549110817       -0.08428355037231
H            2.92087260146740       -0.10664354816814       -2.28643933519013
H            2.81081949363674       -1.69877215565979       -1.52678239742708
H            4.75245123630943        1.44586508283443       -1.66768428777814
H            7.05140625655757        1.67109527274954       -0.85324378378903
H            8.73939576364282        1.79861514774360        0.74389727225325
H            9.31390195849306        1.06253693202655       -0.78025530426289
H           10.13533894371015        0.70541127838937        0.75526142646155
H            7.11399809592461       -4.23024464130721        1.83011588642442
H            5.51213226888089       -3.46249848554253        1.91687353919616
H            6.10820540169742       -4.12861392136360        0.36593596909056
H            4.51889843390992       -2.45439424662856        0.02254781546151
H           -0.13564951995119       -1.73618111331392       -1.66969983262642
H           -0.96210540690838       -1.14065813563396       -0.22129532180880
H            0.57715896609852       -1.98813750470512       -0.05879562297563
H           -5.13711289982887        2.37816111039958        0.27052526368927
H           -3.45286830728764        2.07426205442690        2.76432546040041
H           -4.88716948927895        1.15468552744079        2.31164624521316
H           -5.14505496942255        2.81532081097651        2.81395204847683
H           -3.47870179969988        4.55751327132937        1.71722513650068
H           -3.79358693580882        4.66663758963630        0.00848715752451
H           -5.09434784834381        4.77904975917430        1.07729763616348
H           -1.03106067763388        3.39345760196478        2.61622967309364
