72
 energy: 73.770411543338 xtb: 6.6.1 (8d0f1dd)
N           -1.96220671749865        2.89802644849072        2.01050969656384
C           -1.66908917828177        2.73116819834683        0.76558594156923
C           -2.35395673962861        2.03310466089030       -0.24184053186870
C           -3.06822885983651        0.79341288912666        0.01489522987403
C           -4.08763406049660        0.36391822708980       -0.85337592183260
C           -4.81984245957945       -0.77990406425458       -0.65451931287200
O           -5.85279200268261       -1.20931806669906       -1.44347526710499
C           -6.26181419490439       -0.40010887892922       -2.49403104535043
C           -4.53821278616871       -1.60651783719161        0.45941953245854
O           -5.32096738652796       -2.74261627494554        0.59579136654160
C           -5.06872667375159       -3.60342484037846        1.68158844657973
C           -3.49829515706709       -1.23664355590039        1.29609777147347
C           -2.76463982741081       -0.07447111329672        1.07954956709396
C           -1.88030894213453        2.28339040898979       -1.64646322343686
C           -0.97613970405922        1.11404261360270       -2.16434328618323
C            0.31793664853421        1.04936900090280       -1.48638795077149
N            0.83720742186139       -0.05461482837737       -0.90821653045642
C            2.17388329069668       -0.05572338355888       -0.38549879489746
C            3.14161893798901       -0.72012576016914       -1.38239049930108
C            4.55399172202508       -0.58063540004265       -0.90337376486815
C            5.27269271677834        0.57323538772331       -1.15282144654467
C            6.57362843608534        0.71169677745340       -0.68522371003436
C            7.17359117355567       -0.29333886166798        0.05380995172914
O            8.44100771152793       -0.25424094291966        0.55206037174015
C            9.23281417148620        0.87385768969193        0.27517597818547
C            6.44260606637080       -1.46977155859456        0.33295616842997
O            7.10574241975404       -2.40970920798570        1.06513065609571
C            6.45164186054064       -3.61422321668002        1.36997389941121
C            5.14856374531963       -1.59129737821591       -0.14672500575132
C            0.07253645483863       -1.26933925373827       -0.71845151466077
C           -4.88572366912044        2.55779565844447        1.37935158842210
C           -4.46897020794397        1.87707149578133        2.57042392267387
C           -4.62608312159098        4.04254165525559        1.24977044654941
H           -4.34636657525806        1.01941540301450       -1.65810252445606
H           -6.58386809546236        0.58205350913349       -2.13040852235117
H           -7.09809307070986       -0.92471353627105       -2.95834964899497
H           -5.45996085915715       -0.25998132407902       -3.21955408995791
H           -5.21923253738285       -3.09270800327076        2.63411016306226
H           -5.78979842628132       -4.41968368688224        1.60847273769982
H           -4.05106057550665       -4.02180381910052        1.66697142562805
H           -3.25998085327151       -1.86043362371830        2.15064755784834
H           -1.97923957250041        0.18002008889316        1.77648190659899
H           -2.73467179803171        2.40553650504195       -2.32574379513913
H           -1.28238731400352        3.19660131716588       -1.71798430838083
H           -1.52866717326660        0.18327368511546       -2.07887083512310
H           -0.81601337727418        1.35368086134131       -3.21988546188554
H           -0.72567266671553        3.10037420615640        0.35478341533955
H            0.96164524638799        1.89839553252948       -1.58079724243015
H            2.25867479538951       -0.57589370496235        0.57188976409903
H            2.48697319465212        0.97394829045038       -0.21604645130040
H            3.01843499158814       -0.22840360693522       -2.34787222861824
H            2.88190534173792       -1.77707766197070       -1.49488889408261
H            4.83013667482501        1.36655210162816       -1.73503207358553
H            7.11996744043948        1.61319799122839       -0.91233478509277
H            8.79610264696703        1.78322575890698        0.69876264472567
H            9.38350011316734        1.01057729169525       -0.80173198000663
H           10.19505481410007        0.69350009466461        0.74891340954477
H            7.16795615489591       -4.21322999292171        1.93259880795646
H            5.56538510192102       -3.44522112004565        1.99119335416768
H            6.16697134848799       -4.15460726558167        0.46146091593916
H            4.58355602010937       -2.48668500069895        0.06466509047297
H           -0.06829063915771       -1.78773523597372       -1.67375903921059
H           -0.91459838060057       -1.07160266697120       -0.28212850509411
H            0.61026850714239       -1.92940131806919       -0.03623096159516
H           -5.42601975741081        2.03921398829999        0.62208471559409
H           -3.32976288627878        2.05763041358507        2.41993490065588
H           -4.86699547792526        0.87710704363915        2.62772418090582
H           -4.89971569702475        2.51389990211453        3.32507630877110
H           -3.99246724835839        4.42894741790361        2.04940161728085
H           -4.21377981882707        4.47192280410982        0.34875989538032
H           -5.57898984928694        4.53400476570682        1.27780021882880
H           -1.41795329075672        3.60494164740928        2.50499718344322
