72
 energy: -99.327417525851 gnorm: 0.002762320487 xtb: 6.6.1 (8d0f1dd)
N           -2.20127694299189        2.91699125102183        2.38548169923344
C           -2.12635089414306        2.08953412419523        1.45256049349345
C           -3.18253974583413        1.90710925925873        0.39495751025595
C           -3.72390578122068        0.49094324989720        0.47236883139057
C           -4.52121267992369       -0.00990794763330       -0.55871296680529
C           -5.01706187562252       -1.30368624831889       -0.52709574451974
O           -5.77562438138830       -1.87106660355558       -1.48810669181884
C           -6.18931007346247       -1.09510933021909       -2.58841784002100
C           -4.71585365062343       -2.14168154744311        0.58124501867083
O           -5.21077016171853       -3.39447915716175        0.51677422529338
C           -5.00743460540283       -4.26642221280933        1.60454910232833
C           -3.95397228335593       -1.62516749206833        1.61831228796348
C           -3.46615216992985       -0.32637801694805        1.56312303054180
C           -2.46740959557114        2.15851316292702       -0.96243279645770
C           -1.66985442106859        0.97589092315981       -1.54711624604917
C           -0.48709759663221        0.58521063449520       -0.74055466971396
N           -0.17425483333307       -0.65164139811151       -0.37257197367820
C            0.90508522270053       -0.94557064912443        0.34193965004966
C            3.85986269202056        0.31427216499092       -1.98555012857182
C            5.11795027549711        0.33499281501091       -1.43492616714998
C            6.03025126685261        1.39409087896454       -1.70895992147097
C            7.27847584085482        1.42330938073944       -1.14391857417712
C            7.69957084000186        0.40665829391675       -0.28073477734867
O            8.88722477301556        0.34177149446144        0.32843807487956
C            9.83076373423455        1.37196484338697        0.13489019132726
C            6.81003544653968       -0.68166391337355        0.00196821000037
O            7.31840351464631       -1.61208230857437        0.83597148076573
C            6.54332967013077       -2.74626982047196        1.14518357306834
C            5.56051667163618       -0.70354757980158       -0.56182553654454
C           -1.04079613388055       -1.75538998588695       -0.75492147424430
C           -4.37935269205947        2.89406251765605        0.54112935457863
C           -5.13812106119760        2.66965553446987        1.84661506930751
C           -3.96654418079252        4.35935485621555        0.43188409218496
H           -4.76393435191351        0.62743448271175       -1.39319408660104
H           -6.78445988085196       -0.23390213534437       -2.27070678379150
H           -6.80623706599885       -1.75521763302307       -3.19471043955394
H           -5.33634783940712       -0.75220449837648       -3.18348651213423
H           -5.45437991537914       -3.87304883177345        2.52208496120887
H           -5.50331341528982       -5.19551097938047        1.33098997055067
H           -3.94278429812038       -4.45988984118114        1.77074636304273
H           -3.73577205535546       -2.22674408118419        2.48550717562352
H           -2.89293134847382        0.04579336147616        2.39744389206133
H           -3.21759186378049        2.43926476568068       -1.70203127874118
H           -1.79515683000322        3.00896400159391       -0.83959111280037
H           -2.33969912751979        0.13365867407410       -1.70216668487480
H           -1.32036608680680        1.30864266868408       -2.53352924957775
H           -1.25749273044880        1.43024293855476        1.28658577098489
H            0.23317249118809        1.35270016478375       -0.50092345223443
H            1.11448735361023       -1.95884193326002        0.61183178433082
H            1.57277864232624       -0.16015340060748        0.63924172962496
H            3.52689367302240        1.09508136785561       -2.64447618243899
H            3.17666379166632       -0.49177590338964       -1.78447845628108
H            5.71858855698080        2.18293235915067       -2.37537303743968
H            7.94042916259263        2.24254644721086       -1.37464465541432
H            9.44298595480318        2.33637972281342        0.47543462465123
H           10.13102849124468        1.44749457766362       -0.91429556212003
H           10.69353285442437        1.09528049490621        0.73810602680150
H            7.16920396508412       -3.36214359387750        1.78791199162922
H            5.63014531698442       -2.47141674236317        1.68288197059363
H            6.28230664359622       -3.30926212888366        0.24379865231499
H            4.87713094855622       -1.51231592659058       -0.35890555549523
H           -1.12973227208843       -1.80529745202817       -1.83983364294140
H           -2.03150681126513       -1.63002529134246       -0.31787415249805
H           -0.61834693880782       -2.69096255164093       -0.39829053611464
H           -5.06373770242271        2.67117205654624       -0.28620796213784
H           -4.49945446178014        2.90180043417869        2.69314291641857
H           -5.48053526036330        1.64107042039523        1.93238720486217
H           -6.00618988240026        3.32296828790549        1.88003301973266
H           -3.25676815854609        4.60834569997839        1.21468038872181
H           -3.52749149325575        4.58808581573876       -0.53546117100770
H           -4.84506264389678        4.98754066515742        0.55660886305983
H           -1.42011400286726        2.98119186643548        3.03048166382729
