25
 energy: -42.230051720025 gnorm: 0.002687216585 xtb: 6.6.1 (8d0f1dd)
C            3.69792647039729        0.81734374983266       -0.40212686638778
N            2.60889249899954       -0.07641495311640       -0.12957586608744
C            2.68381133897112       -1.39180399996943        0.10074794545286
N            1.43250696875663       -1.90063918349433        0.27146211482997
C            0.54095586947545       -0.87779436762572        0.14157079075574
C            1.27663862524836        0.27868711242920       -0.11130942666706
C            0.63041711414974        1.55541381528826       -0.26758817487418
O            1.13009440169795        2.63121930213669       -0.44423225618674
N           -2.73450148474131        0.31488736848279        0.07548447794926
C           -3.57888884580788        1.44323955345650       -0.10183698456669
C           -1.47311576765675        0.31722327793777        0.03259184145392
O           -0.75330958804983        1.44141194168398       -0.18428720358095
N           -0.80680079566168       -0.89730870895786        0.22214962034416
C           -1.54590883024490       -2.11315845162132        0.48100561016523
H            4.62144146183996        0.41241005192810        0.00616550638726
H            3.81302796696620        0.95638991904138       -1.47974172328916
H            3.48651053160012        1.79153813121766        0.03842268498153
H            3.58586231608330       -1.96566583584292        0.14810489178226
H           -3.17966328728308        2.34721438232257        0.36609163659814
H           -3.71965693692130        1.63913444325142       -1.16804381925369
H           -4.54722822428159        1.19510814261300        0.33386225063553
H           -1.36051733823912       -2.46359163172312        1.49753026472796
H           -1.26529663843421       -2.88483115243292       -0.23615805652540
H           -2.60358083064794       -1.88512978779945        0.37086778695952
H            1.22081451789066       -2.86664457747662        0.47001457229414
