25
 energy: -42.105970047694 gnorm: 0.003463732364 xtb: 6.6.1 (8d0f1dd)
C            3.37145738171807        1.04200200549555       -0.01158383021682
N            2.37545035460850        0.00472921562612       -0.02939638502455
C            2.59684629447964       -1.30753611274862       -0.01065875696283
N            1.41800305113145       -1.97201744410371       -0.00687625298484
C            0.41443099840757       -1.04992057195505       -0.02144377224617
C            1.01059177785977        0.20488584715471       -0.03873315582227
C            0.24954174692112        1.41657902096332       -0.07001886715065
O            0.66290964115312        2.55359267488795       -0.11113340206192
N           -1.16724073819047        1.14508888633803       -0.04072087821163
C           -1.99374664199736        2.20033497865374       -0.04155355848348
C           -1.77483211666938       -0.14332996814728       -0.01926021187085
O           -2.96835271828209       -0.27129380983424       -0.00523739066731
N           -0.91973588822755       -1.24225622072254       -0.01686688545756
C           -1.48977019665953       -2.57791722331642       -0.00545653315648
H            3.87849422849825        1.06189278270276        0.95429163269661
H            4.11085395723332        0.86999705196692       -0.79303937254621
H            2.88315146967262        2.00164194481856       -0.17375086609957
H            3.56191233830429       -1.77380507673853        0.00072877811714
H           -1.55210430278972        3.17887184718220       -0.06611805311510
H           -3.06850701299327        2.04383523532599        0.04957543664238
H           -4.80934309673225        2.12675354398659        0.49372864281654
H           -1.17020419035800       -3.11859929239948        0.88544311576574
H           -1.19744567616984       -3.12223810040126       -0.90358953533807
H           -2.57376721617555       -2.47659175903258        0.01080328609287
H            1.31183806935716       -2.97646091410276        0.00203843318497
