25
 energy: -41.926493941436 gnorm: 0.005519811408 xtb: 6.6.1 (8d0f1dd)
C            3.24086621970869        1.04429517739566       -0.59661495683779
N            2.29913758715572        0.16781451460413        0.00538274062785
C            2.46656833656128       -0.94223789442829        0.90082332265516
N            1.54918019892778       -2.01224969588244        0.49376653658896
C            0.97992346389636       -0.90017298866559        1.17170689416048
C            0.95039108648922        0.20855219060478        0.16029670304232
C            0.04788658518247        1.11861595690244       -0.39863934060496
O            0.24587637947135        2.03312397788694       -1.15999423178023
N           -1.38487943919460        0.91757671577160        0.06631110916633
C           -1.97909027572980        2.03349678726842        0.78534962883066
C           -2.08046302946194       -0.06624726592019       -0.32959783295387
O           -3.30349185729156       -0.51392281717761       -0.26802106981047
N           -2.20036652066997       -1.15129143635961       -1.10501726558432
C           -1.78931424103987       -2.47453499580148       -0.74914625661942
H            3.84169944596725        1.55196872533440        0.16518961325625
H            3.91961157312927        0.47435532280082       -1.23721300061981
H            2.70807535973410        1.78838451928505       -1.18819324767202
H            3.35665255998519       -1.10369582260384        1.47806310508405
H           -1.70985175807132        2.95247046513653        0.26259890014608
H           -3.06357441055290        1.92818153570726        0.81946695700978
H           -1.57742083819425        2.06071531797997        1.80077573403318
H           -1.77894001942598       -2.65484704963700        0.32803996777614
H           -0.78170938001654       -2.59298447582667       -1.15022787324764
H           -2.45799321206236       -3.17703600705587       -1.24374192294189
H            1.66165769960254       -2.87209221572073        1.01980740419367
