25
 energy: -42.453064832184 xtb: 6.6.1 (8d0f1dd)
C            3.27664156878205        1.27163037629824        0.09112477665499
N            2.34915314567723        0.17287386201304        0.09217303187929
C            2.63900158955020       -1.12083683667008        0.11774408786974
N            1.51398423845030       -1.84893602812888        0.12283884063739
C            0.42942285246857       -0.99113222019753        0.09344823887486
C            0.96906310458105        0.31814156912903        0.07969959665179
C            0.16102737572223        1.47000237948727        0.02672492424057
O            0.53465934170549        2.64402778240842        0.00292462352791
N           -1.21000208408931        1.11904420083676        0.00146556558363
C           -2.16643678181965        2.21672523803842       -0.06571857836760
C           -1.76632652960361       -0.12829986363987        0.01667522296189
O           -2.96032339371134       -0.31204873523621       -0.01979006504137
N           -0.88331474997717       -1.27046647924731        0.08181973546675
C           -1.43716556288828       -2.50129767077870        0.11164591620298
H            3.78277038859285        1.34681434947934        1.05534474733981
H            4.02361127112666        1.14069191373989       -0.69118831615198
H            2.70984717684499        2.18744081558476       -0.08429489064121
H            3.63021216615034       -1.53083780201187        0.14307877972018
H           -1.60062686880033        3.14582335204527       -0.03615229918059
H           -2.74543714749030        2.15513097675875       -0.98671390407483
H           -2.85529673120459        2.16539108153718        0.77709483924008
H           -0.81351526590822       -3.36984693027191        0.10733034366317
H           -2.67785422335007       -4.92950502547968       -1.41846831058550
H           -2.50669824964037       -2.55220440990117        0.06468235943908
H            1.45952471909399       -2.85555077279858        0.12989022901978
