25
 energy: -42.126636793758 gnorm: 0.008487064166 xtb: 6.6.1 (8d0f1dd)
C            3.83630050860600        0.62402025334424        0.09337300051714
N            3.49746438427074       -0.48062977323676       -0.44091321206507
C            2.74994226774732       -1.51606393862294       -0.31037859443861
N            1.41680500520660       -1.59333729244219       -0.02942026492973
C            0.44098608769284       -0.63409548544613        0.04614072380192
C            0.64802045613968        0.73899095284463        0.02940422718172
C           -0.42296519640100        1.61229889188061       -0.01316199522979
O           -0.18510429048092        2.92292539186004       -0.01572369163470
N           -1.70857037602692        1.13840541257607       -0.09658526286090
C           -2.78754987117470        1.91382023861593       -0.29507469148036
C           -1.96027501946872       -0.26290999538668        0.06724105116457
O           -3.08990164396592       -0.66705398156493        0.12679262617832
N           -0.86182789266847       -1.08703169141609        0.14374991652269
C           -1.15798182377721       -2.50357757703400        0.31166890519278
H            3.65695046233317        0.86523873962145        1.13958207051607
H            4.42076022708033        1.31022176280928       -0.50432994609617
H            1.62843458007358        1.17228611261032        0.04074421053367
H            3.18938677425059       -2.46442923616332       -0.58646113089989
H           -0.98179193837995        3.45297643124061        0.13495676821238
H           -2.69495519556833        2.95235142808303       -0.53984286440354
H           -3.74565847726168        1.43164010297343       -0.29381001243641
H           -0.61340878131807       -2.91282062325905        1.16430481472192
H           -0.94381029977845       -3.06444079360055       -0.60120197261105
H           -2.22685408011835       -2.59077756089391        0.51359081034299
H            1.05603564708748       -2.53976922779262       -0.05347386789991
