  25
        -42.13722006
 C          3.3596561238        0.6161343507        0.0302618945
 N          2.2527981812       -0.3011919004        0.0059846085
 C          2.3260958958       -1.6355035969       -0.0137727701
 N          1.0811541036       -2.1657659702       -0.0012458822
 C          0.1832524868       -1.1305164706        0.0263309405
 C          0.9229355639        0.0485325128        0.0287451243
 C          0.2990879175        1.3472486278        0.0215452961
 O          0.8747031095        2.4169336599        0.0220403034
 N         -1.0991550772        1.2439584978        0.0095204007
 C         -1.8565672943        2.4875788910        0.0015260069
 C         -1.8662526144        0.1052983514        0.0033910984
 O         -3.0661815953        0.1185283020       -0.0130928770
 N         -1.1734228591       -1.1657418657        0.0362604959
 C         -1.9132227735       -2.2883751917        0.0418549030
 H          3.9131768135        0.5164813045        0.9654774066
 H          4.0368813217        0.4159850272       -0.8001036001
 H          2.9750399485        1.6327941762       -0.0486778697
 H          3.2329342963       -2.2058002996       -0.0380209236
 H         -1.1505509215        3.3133065436        0.0674182850
 H         -2.4397300398        2.5648578378       -0.9167979245
 H         -2.5447060943        2.5068402816        0.8470087065
 H         -1.4516771849       -3.2426731848        0.2063627634
 H         -1.7612309797       -1.8674556123       -2.7552746590
 H         -2.9804651404       -2.1765153287        0.0041572553
 H          0.8694468811       -3.1518050621       -0.0424694039
