25
 energy: -42.141180482553 gnorm: 0.002677402682 xtb: 6.6.1 (8d0f1dd)
C            3.10652197193680        1.00777684286438       -0.21890238671520
N            2.22770472769796        0.01344055069034       -0.16033696336207
C            2.47806743089339       -1.31902151078688       -0.17186208859096
N            1.30321103000316       -2.01292473697126       -0.10998187206199
C            0.28399939715664       -1.11706855091516       -0.05902490329762
C            0.84274241749205        0.15489784060254       -0.08585668544539
C            0.03416478687693        1.34425725996980       -0.06404695325888
O            0.43803979411031        2.48638057705881       -0.08653063772968
N           -1.33225948239046        1.03165705582181       -0.01221960401827
C           -2.27264263831953        2.13988927505219        0.00136817912307
C           -1.91018869593260       -0.22330802394197        0.01553360888825
O           -3.10256134189366       -0.37849751058051        0.05468163179462
N           -1.04374299492594       -1.33408252570490       -0.00532492845876
C           -1.60967994706026       -2.66641847881320        0.02477177918402
H            4.97000348896607        2.41800793977145        1.62344554114554
H            4.15520434605326        0.78590747978783       -0.28842618795534
H            2.74026149620010        2.01780884728350       -0.21294045679737
H            3.44872749849695       -1.76493611115072       -0.22040789425485
H           -1.70473816601349        3.06807523614191        0.01942482405305
H           -2.90484383048352        2.10223154509202       -0.88726402206199
H           -2.91622435274361        2.07040009932935        0.87929563457675
H           -1.28238973830093       -3.20108518535025        0.91743437372630
H           -1.32627330776754       -3.22306057780336       -0.86941845854968
H           -2.69441496043472       -2.56300811137720        0.04934075093035
H            1.23174258448279       -3.01908068447048       -0.10158066296377
