72
 energy: -99.409727517473 gnorm: 0.001666951104 xtb: 6.6.1 (8d0f1dd)
N           -0.73783033497650        1.40393899091676        1.29110643797356
C           -1.56417674494087        2.21358292540514        0.79734593189416
C           -2.83129013806991        1.84204911875196        0.07540754979724
C           -3.32404388635067        0.41558354344703        0.27281751902544
C           -4.35455096203581       -0.05535619225577       -0.54786533899816
C           -4.88879698077158       -1.32357811773595       -0.39673153415807
O           -5.88812336168029       -1.84282577226825       -1.14276365002436
C           -6.53066445906086       -1.03188769690890       -2.09693299776700
C           -4.37799700546487       -2.18285286177848        0.61247829623332
O           -4.93950480336122       -3.40672183828215        0.67628249104804
C           -4.53033778260052       -4.29393361661418        1.69073141217706
C           -3.37208256094405       -1.70543076074109        1.43608974898571
C           -2.85988182184327       -0.42401639644847        1.27384192646511
C           -2.54068483184055        2.11416506320840       -1.42373420115182
C           -1.64874783692861        1.04064176474691       -2.07693052270338
C           -0.26328498741119        1.09522491782384       -1.56806507890555
N            0.39209012563450        0.10209482919373       -1.00715056054756
C            1.73507520014656        0.28448293901461       -0.51377246414779
C            2.78811368589783       -0.32546855624169       -1.45766865771724
C            4.16247514212582       -0.12107314069112       -0.88235372458588
C            4.76387732336944        1.12661216765068       -0.93107327136014
C            6.01188372226155        1.33681812926723       -0.36621714990444
C            6.68824406093757        0.29839550663099        0.25775052196209
O            7.89780601607132        0.38734125770858        0.84202309614880
C            8.56772535956723        1.62678195728426        0.84957253540460
C            6.08554601722563       -0.98889180169955        0.30156101826064
O            6.81736873288657       -1.94325356368204        0.91007924716361
C            6.32368386752647       -3.26044869002570        0.96611714847997
C            4.83129498843201       -1.17165215281407       -0.26034939735588
C           -0.19493085981510       -1.20434027397052       -0.83763208509911
C           -3.97723343606663        2.78019095723541        0.58355333975092
C           -4.10879807144423        2.65748460575407        2.10141356342816
C           -3.83807567464062        4.25151993081578        0.19446226928485
H           -4.76050048665895        0.58491639160881       -1.31335667092839
H           -6.96806205586651       -0.14027479672717       -1.63685614752798
H           -7.32598605842584       -1.64641512740291       -2.51431117140606
H           -5.84785710503026       -0.73379145261761       -2.89934359106473
H           -4.71870318527843       -3.87891710049313        2.68532839067837
H           -5.13103053659334       -5.19113216146939        1.55454294991398
H           -3.47034132807523       -4.55022603829025        1.59660827952714
H           -2.97843674537016       -2.32229685043045        2.22754544407713
H           -2.08658324803291       -0.08684529159273        1.94218996443814
H           -3.48035848981553        2.16286712119236       -1.97238612243218
H           -2.05176271728869        3.08397698654793       -1.52332140492013
H           -2.09438972215373        0.05941106800180       -1.93177165356868
H           -1.62786295013310        1.25488131756829       -3.15186580615335
H            0.25688165336321        2.03814214699452       -1.65038974440906
H           -1.40530966920001        3.29891889569743        0.81584215094872
H            1.81087789412978       -0.18291023021532        0.47088647263327
H            1.93863642549920        1.35038225256808       -0.40177713604575
H            2.71298571034457        0.16465560953501       -2.43037538923791
H            2.59332185062160       -1.38935544883548       -1.59307618645217
H            4.26550090194749        1.94829014173556       -1.42279496613084
H            6.45415772327143        2.31789857132664       -0.42219844884314
H            7.99043919483967        2.39062769836705        1.37952810221331
H            8.78501659998184        1.97125920288813       -0.16586868957617
H            9.50241369547886        1.44999574430367        1.37810079136841
H            7.09238463973395       -3.83859145450125        1.47520654298177
H            5.39189306803662       -3.31649807008665        1.53781108828416
H            6.16524526396948       -3.67208126254131       -0.03547081207295
H            4.36547657309997       -2.14413083833763       -0.22970379518344
H           -0.46867214360171       -1.63768458568430       -1.80096291038592
H           -1.08542863695563       -1.13401973019265       -0.20759434029119
H            0.52156273383723       -1.86038093226517       -0.35184564084691
H           -4.90485043647127        2.41201947130770        0.13389868236581
H           -3.21822084884299        3.03506678742696        2.59958075172177
H           -4.25272043966366        1.62080145172228        2.39566786088564
H           -4.96180253001548        3.23388180172428        2.44953707483945
H           -2.94680673884725        4.70532550162810        0.61955377312185
H           -3.82423117210005        4.38968906101353       -0.88267892110800
H           -4.69545750380495        4.79487950546580        0.58435785719334
H            0.07094871522558        1.82662699282110        1.73963479497169
