25
 energy: -42.003558053629 gnorm: 0.001024682140 xtb: 6.6.1 (8d0f1dd)
C            1.98869028393920        1.88761120681516        0.09231529664341
N            2.02990063637961        0.48594405652714        0.04147426144090
C            5.23205310740286       -0.85761481403958       -0.26976804563526
N            1.02698545352422       -2.27914801099296       -0.02535944274293
C            0.25747711796465       -1.28187659695625       -0.00417653937410
C            0.80205307622343        0.06211163869894        0.03495989528880
C           -0.09227634685888        1.18118401521976        0.08073009336455
O            0.59738362721685        2.29655930528818        0.11622357737205
N           -1.40350941941899        1.06282205871991        0.08293224146318
C           -2.30441545209831        2.19825485386322        0.13665739135947
C           -1.99798606204458       -0.23334102323697        0.02724046210131
O           -3.19261704434501       -0.32244090982335        0.01869583293953
N           -1.14479336061315       -1.31298461679451       -0.01367216010710
C           -1.77806078708823       -2.62554923484482       -0.06587548739429
H            2.49062938056916        2.27408159097248        0.98969425270001
H            6.26998095709846       -0.63102968182369       -0.39746332819969
H            2.47695278572481        2.33889372578081       -0.78222233165858
H            4.69849927810701       -1.78176283949747       -0.19528772150941
H           -1.72054015044194        3.11291666690946        0.18765723614854
H           -2.93952081893932        2.20085228655560       -0.74968975808234
H           -2.94856365660990        2.10789133571728        1.01179664177278
H           -1.49743180849427       -3.21342811148472        0.80901545587183
H           -1.48285909994463       -3.14801876885364       -0.97656400957282
H           -2.85718853984615       -2.48768633052119       -0.06942530658621
H            0.64958835670967       -3.21600326061517       -0.04871688964676
