25
 energy: -42.312753567659 xtb: 6.6.1 (8d0f1dd)
C            3.33327934893460        1.86923288163539        0.08584380452414
N            2.95842752720291        0.80857084301724       -0.57708504321142
C            2.20684859306561       -1.18519340938512        0.14761883713199
N            1.31340679088274       -2.26523287780436        0.06426469604331
C            0.25430141501145       -1.40640241019962        0.00963157005008
C            1.03541166984994       -0.24044563257580        0.06244073519910
C            0.29737959069803        1.01337164759615        0.08126957420007
O            0.71708888087381        2.14868636849521        0.15238542712855
N           -1.13772072572598        0.82441903375108        0.02085004756426
C           -1.96168407754071        2.03862308983026       -0.02865673422431
C           -1.83688088976691       -0.33957323386138       -0.06308144094894
O           -3.04942035254123       -0.35466075862287       -0.14870885725948
N           -1.08738760648594       -1.51606279217005       -0.03235819068120
C           -1.81008724885666       -2.75858960478392       -0.09605337089820
H            3.62610578556536        1.82680660014234        1.15187139892374
H            3.97967589759034        1.69448394765554       -0.93946458452591
H            2.94794392775772        2.89275548437232       -0.08075352057527
H            3.25902748225751       -1.38569253814841        0.27941157932686
H           -1.29873185066965        2.89736373760492        0.01264063309640
H           -2.55214278907571        2.07726254236414       -0.94827502051973
H           -2.63979048634936        2.06304882432696        0.82329311427058
H           -1.59640372046331       -3.37816126983406        0.77647335187779
H           -1.57022809827489       -3.31351768124032       -1.00464164352131
H           -2.87057043360183       -2.49184416239611       -0.10955925603291
H            1.40887673717394       -3.26221237632550        0.11853590452894
