25
 energy: 0.000000000000 xtb: 6.6.1 (8d0f1dd)
C            3.23720163006194        1.16630919979326        0.08434469647475
N            2.29877817382611        0.07527477071623        0.03981603040599
C            2.58028210190900       -1.21425402444508        0.03006176031096
N            1.43813958087363       -1.93419271955128        0.00098261760884
C            0.39035688448383       -1.05887472636071       -0.00790371836672
C            0.93510056364412        0.21347819449412        0.01709077491437
C            0.09450143893243        1.40504303904423       -0.00410947031874
O            0.49712751527797        2.54126714362870       -0.00342325688240
N           -1.25076640035757        1.06271879480407       -0.03085478223738
C           -2.21907211982101        2.15522099834493       -0.05001256985998
C           -1.81739487048744       -0.20012725993278       -0.04692818574614
O           -2.99983886758376       -0.37846417018721       -0.07008878229737
N           -0.92618586207120       -1.30210215599479       -0.03682761578324
C           -1.46982264913417       -2.64643102187190       -0.06029820460571
H            3.71247264356769        1.21471455160235        1.06488849150277
H            4.00791497605742        1.03430808813993       -0.67357694370751
H            2.69910007168542        2.09770118228144       -0.09130154882931
H            3.56654120610678       -1.63682992603973        0.04233140067262
H           -1.67107961066214        3.09322851271934       -0.02552706933167
H           -2.82428953597071        2.09428624779827       -0.95318082946668
H           -2.87644029173232        2.07745725625962        0.81450067533302
H           -1.17061996399332       -3.19584890659852        0.83242232437030
H           -1.14560257411436       -3.17511610292205       -0.95688275822323
H           -2.55549792440841       -2.55659984320617       -0.07459039797972
H            1.38130855184625       -2.94313852034425       -0.01389874181052
25
 energy: -0.100815869092 xtb: 6.6.1 (8d0f1dd)
C            3.23271812822222        1.18021751647384        0.08600635956572
N            2.29476194678821        0.08958536293819        0.03776258138197
C            2.58836804990278       -1.24366400812166        0.03038521619637
N            1.44166842434424       -2.00769014789430        0.00010798636755
C            0.40401697403485       -1.08546983249888       -0.00835890973665
C            0.92121864315183        0.21203531170845        0.01516287743178
C            0.09556351028920        1.40252733501251       -0.00457568660461
O            0.49165974609943        2.56986114042504       -0.00327736640371
N           -1.26730684466613        1.06828183376188       -0.03083317044029
C           -2.23334475263777        2.16578245069624       -0.05009937084035
C           -1.82196360701305       -0.18621934022995       -0.04708537382368
O           -3.01887270819883       -0.36654795178076       -0.07052897851794
N           -0.93248068790559       -1.29415715711513       -0.03676106956640
C           -1.46960589762864       -2.62875891400227       -0.05976429452670
H            3.71555382676460        1.23072522502775        1.06615365515262
H            4.00418466563244        1.04691774266332       -0.67429047930131
H            2.70354963708075        2.11687140707093       -0.08955747223567
H            3.57133485752840       -1.64368405553897        0.04355858492814
H           -1.68468692516954        3.10539016161043       -0.02548906801237
H           -2.84195645413532        2.11232954148178       -0.95292126053792
H           -2.89495886842093        2.09543882334865        0.81326428049476
H           -1.15200688584296       -3.16983248768867        0.83265390105854
H           -1.12760551482439       -3.14900630592327       -0.95560982337895
H           -2.55443991766454       -2.54182158186070       -0.07375484221015
H            1.44684532220497       -3.09008346739245       -0.01511438029347
25
 energy: 11.868078633296 xtb: 6.6.1 (8d0f1dd)
C            3.22737471327413        1.18590755789654        0.08701720242271
N            2.28746085762370        0.09637992288201        0.03445309610173
C            2.58782054410345       -1.26601512673493        0.03141735256119
N            1.44229478522742       -2.07786100121268       -0.00038698049419
C            0.41529550533338       -1.11431523497807       -0.00903223496276
C            0.90504499660400        0.20134695265133        0.01284802385246
C            0.09528604565909        1.38937011252363       -0.00484863606748
O            0.48024754957156        2.57012861252290       -0.00269989599361
N           -1.28790492730774        1.08095604841876       -0.03073001925330
C           -2.24925479353023        2.18377599386484       -0.05023814188531
C           -1.82412850673363       -0.16598759413222       -0.04709254551725
O           -3.02579917212667       -0.35448968332492       -0.07100652269759
N           -0.93962517975169       -1.27600705581297       -0.03648795194211
C           -1.46898645164456       -2.60547049755535       -0.05911900578106
H            3.71585080076648        1.24337824424720        1.06639236873015
H            4.00024856338843        1.05882900406845       -0.67522962876991
H            2.70551629943635        2.12855942216397       -0.08733249553874
H            3.57493896684257       -1.63726296043295        0.04527154109148
H           -1.70054771817908        3.12448640217945       -0.02524891912777
H           -2.86102326989085        2.13468733810886       -0.95245084165179
H           -2.91514999634212        2.11754886691068        0.81143389101568
H           -1.13303357411933       -3.14001446996749        0.83174062266215
H           -1.10959386518161       -3.11916980889460       -0.95313246338493
H           -2.55336328424185       -2.53098595544059       -0.07273712493757
H            1.54324577915501       -3.23874648777984       -0.01576679428489
25
 energy: 21.410920113697 xtb: 6.6.1 (8d0f1dd)
C            3.22542438984806        1.18604405757904        0.08717151039289
N            2.28574590810503        0.09642916695064        0.03231122345641
C            2.58401878336180       -1.27491500097594        0.03235646271358
N            1.43990838033335       -2.10472753263017       -0.00034427239618
C            0.41869382639698       -1.12495943124753       -0.00942743492266
C            0.89965396567170        0.19467607602333        0.01189519045008
C            0.09519667184639        1.38422971722457       -0.00468509539274
O            0.47502823210966        2.56494969508901       -0.00221310286135
N           -1.29821500090852        1.09242825249152       -0.03063409386542
C           -2.25791511563058        2.19533041208252       -0.05042066105259
C           -1.82623742693282       -0.15513570468381       -0.04708302222271
O           -3.02704610229401       -0.35280738566088       -0.07140002604779
N           -0.94213269463495       -1.26208199968780       -0.03612272504860
C           -1.46735451450104       -2.59361052411289       -0.05866439279157
H            3.71384663912658        1.24690980733469        1.06656432959192
H            3.99824822251187        1.06396522998784       -0.67592834323725
H            2.70470066409423        2.13093863188059       -0.08629913520260
H            3.57723067315492       -1.63173889215806        0.04571279341441
H           -1.71091449825587        3.13671639391110       -0.02504190916615
H           -2.87041474530918        2.14581757143082       -0.95247474713336
H           -2.92533729075717        2.12838804859905        0.81038467910754
H           -1.12297005125335       -3.12447298356922        0.83133323216690
H           -1.10020323371577       -3.10364506872719       -0.95179044643591
H           -2.55193033165694       -2.53016847241386       -0.07204786311376
H            1.59518931722587       -3.31953146254533       -0.01611825425582
25
 energy: 27.747868863240 xtb: 6.6.1 (8d0f1dd)
C            3.22606578121133        1.18611540030033        0.08724122693901
N            2.28683271762295        0.09653184681944        0.03113825256038
C            2.57963301805963       -1.27660202622071        0.03346723764652
N            1.43534226340083       -2.10826361541197        0.00007811890700
C            0.41779913308713       -1.12457358960879       -0.00957533002846
C            0.89929198596981        0.19386215850185        0.01172182085489
C            0.09525984348908        1.38514792716490       -0.00459689774004
O            0.47221126943924        2.56368707503516       -0.00202587951230
N           -1.30177249755368        1.09897434668084       -0.03060614132389
C           -2.26115084035103        2.19971980297221       -0.05053435680141
C           -1.82852589551613       -0.15084533164527       -0.04708419372844
O           -3.02767931585869       -0.35387088952277       -0.07158057027793
N           -0.94332133474313       -1.25348037512661       -0.03577914660773
C           -1.46599165082890       -2.58900010782961       -0.05844478794504
H            3.71332299299288        1.24784508198072        1.06681627716421
H            3.99851098651203        1.06580786584753       -0.67597566290810
H            2.70509312463517        2.13162229630730       -0.08620316131631
H            3.57584848289684       -1.62787508462025        0.04507422102645
H           -1.71553443359380        3.14144756102243       -0.02498845001957
H           -2.87334313829293        2.14861788936246       -0.95279278773815
H           -2.92854033962258        2.13102661014405        0.81025390870803
H           -1.11883263682498       -3.11799723207554        0.83119750830754
H           -1.09628256497388       -3.09710349336435       -0.95128027718470
H           -2.55057125736140       -2.53162520574032       -0.07180556677145
H            1.61854897414044       -3.37014030880100       -0.01668146606319
25
 energy: 35.825720503086 xtb: 6.6.1 (8d0f1dd)
C            3.22787160359871        1.18776723696379        0.08718573643019
N            2.28965109796447        0.09809718374755        0.02976077165810
C            2.57275927795646       -1.27467130124823        0.03669258800612
N            1.42717303743756       -2.09889883268058        0.00195118556089
C            0.41388536721937       -1.11767901096779       -0.00996456153399
C            0.90079306756834        0.19721164452674        0.01193506142710
C            0.09515088945790        1.39005332516083       -0.00445392002219
O            0.46856631582926        2.56573330648070       -0.00210293751027
N           -1.30358631848526        1.10499394192615       -0.03053299916854
C           -2.26303753036340        2.20233371359187       -0.05057967872580
C           -1.83225743829502       -0.14783219166362       -0.04708786305929
O           -3.02910491458829       -0.35433231605143       -0.07162170651178
N           -0.94526267070048       -1.24387887988769       -0.03553107738284
C           -1.46453017682395       -2.58539723220961       -0.05839567448771
H            3.71341012842957        1.24954155339811        1.06707337496456
H            3.99997234954687        1.06793136924434       -0.67570803441964
H            2.70645318037067        2.13347160140024       -0.08677988408247
H            3.57144023505678       -1.62247448056006        0.04312774787834
H           -1.71959442632937        3.14486182711731       -0.02495906595669
H           -2.87501954457993        2.14976163889787       -0.95299631525461
H           -2.93027179960189        2.13203482189929        0.81032355021675
H           -1.11526318894516       -3.11193833105624        0.83106681770555
H           -1.09279549145020       -3.09098197772833       -0.95108851373772
H           -2.54892982394634       -2.53284584643815       -0.07178676937319
H            1.64474144160949       -3.45383416169105       -0.01849393647360
25
 energy: 32.940799493476 xtb: 6.6.1 (8d0f1dd)
C            3.23136979437075        1.19311935475210        0.08679731312254
N            2.29073676101774        0.10775505890542        0.02662315820307
C            2.54406704491356       -1.26420047778910        0.04503557121281
N            1.40238143444107       -2.07456194276996        0.00943669855627
C            0.40399780371369       -1.09665739327632       -0.01118198892498
C            0.89893698446046        0.21222063568669        0.01261849549767
C            0.09470997757088        1.40534447405292       -0.00358766082900
O            0.45523014862701        2.57381937651542       -0.00277602996627
N           -1.31060332592685        1.12498441247764       -0.03021417431640
C           -2.26885887919024        2.21272410554094       -0.05072868585788
C           -1.83980737403598       -0.13655054643573       -0.04710049303155
O           -3.03120074080253       -0.35253591188413       -0.07167793895880
N           -0.95161904915781       -1.21339620245703       -0.03528015038252
C           -1.46148104834311       -2.57219772123578       -0.05820302930084
H            3.71304828881516        1.25268048359288        1.06714751550922
H            4.00138693541060        1.07173736825792       -0.67598877617010
H            2.71175610916056        2.14146583462904       -0.08768239413819
H            3.55156330112329       -1.60205927970192        0.03935547280615
H           -1.72848446977010        3.15571483212298       -0.02489979522590
H           -2.87975243501602        2.15539862285891       -0.95381512896223
H           -2.93525740975165        2.13744760329660        0.81067950075805
H           -1.10589503472784       -3.09505008557464        0.82894607496639
H           -1.08379812493007       -3.07439548074100       -0.94850681084477
H           -2.54559898892472       -2.53418697670461       -0.07161298523479
H            1.75538696488834       -3.73959154194719       -0.02634986234066
25
 energy: 25.016814098539 xtb: 6.6.1 (8d0f1dd)
C            3.23314347973821        1.19660934794877        0.08700441171525
N            2.28507408507743        0.11525992371126        0.02683013809369
C            2.49797734628033       -1.24397583878898        0.04576267952434
N            1.37578444365656       -2.02362908273314        0.01376328772299
C            0.39369364203943       -1.06103843471078       -0.01058677107962
C            0.89835415944780        0.23765517417522        0.01325889768016
C            0.09113665826447        1.43028806023991       -0.00407587323439
O            0.44062952505114        2.58481077470908       -0.00289177259612
N           -1.31020845928419        1.14532473035246       -0.03026131814516
C           -2.27179891148998        2.22178056817130       -0.05095452799582
C           -1.84297111109693       -0.13047534231659       -0.04696996469262
O           -3.02973230682898       -0.34707687184055       -0.07175665802275
N           -0.95378621847602       -1.18563299356720       -0.03385585947549
C           -1.45751654379169       -2.56134728121095       -0.05769336790148
H            3.71185079173467        1.25307790203834        1.06661826707827
H            4.00071639673526        1.07218293257182       -0.67556835287712
H            2.71810924152556        2.14889236332758       -0.08807956366329
H            3.51609523418825       -1.58340133699091        0.03782385884608
H           -1.73650368668554        3.16637613028553       -0.02514740293213
H           -2.88219534998458        2.15919884658407       -0.95409373589167
H           -2.93776543721037        2.14120319904306        0.81044322921606
H           -1.09666139869456       -3.08186697549825        0.82603641753645
H           -1.07476671775802       -3.06116247269990       -0.94467145524948
H           -2.54183896979948       -2.53400051653387       -0.07132670353595
H            1.88539477529740       -4.07002420409523       -0.03257396397293
25
 energy: 20.702002431359 xtb: 6.6.1 (8d0f1dd)
C            3.23201279484925        1.20122325864878        0.08737785005849
N            2.27160753863798        0.12403083925160        0.03311593196466
C            2.46190410564054       -1.21141042934995        0.03405135268346
N            1.36268187913995       -1.94261046253580        0.00859441149983
C            0.38722854191760       -1.01093351360111       -0.00656693705394
C            0.89870835547686        0.27920516039693        0.01285882323282
C            0.08058799477105        1.46287317367919       -0.00642071217997
O            0.43413049112588        2.61484502331984       -0.00197229058262
N           -1.29763700238940        1.14707079083258       -0.03082393955011
C           -2.26890912019769        2.22086816374724       -0.05097187688559
C           -1.83922177436994       -0.13720273842963       -0.04669718256694
O           -3.03056722793013       -0.32880399598134       -0.07178343646517
N           -0.95212961137428       -1.18635777211676       -0.03143841305997
C           -1.45475137876240       -2.56213514466456       -0.05709822010117
H            3.71162676971792        1.25013118467438        1.06602733444070
H            3.99884095784611        1.06659888071178       -0.67481848194221
H            2.72333456517993        2.15451656025875       -0.08838147182326
H            3.47742982408338       -1.58124547462590        0.04363383446795
H           -1.73743331734973        3.16861574772479       -0.02556447897737
H           -2.87953105230859        2.15686631104143       -0.95345009623362
H           -2.93451028499953        2.13905697689599        0.81013767668291
H           -1.09611588703708       -3.08450649342759        0.82593375609803
H           -1.07373998737487       -3.06261367190631       -0.94388255070675
H           -2.53948467414060       -2.52757231321326       -0.07120835408714
H            1.97615216778398       -4.36148145915907       -0.03361863276574
25
 energy: 20.074624846615 xtb: 6.6.1 (8d0f1dd)
C            3.23521038997970        1.21633609689527        0.08557936059070
N            2.26613453003974        0.14548018476350        0.03748346449714
C            2.45617384443293       -1.18335360882655        0.03106584690706
N            1.35275645797520       -1.89116755561333        0.00599772738686
C            0.37895016506585       -0.96823298517579       -0.00507962704192
C            0.89810064951301        0.31826118191354        0.01479850026843
C            0.06705267471335        1.48901476742995       -0.00390421855019
O            0.42829144493909        2.64632080185742       -0.00130587331375
N           -1.29164167906805        1.14769147433733       -0.03023230913770
C           -2.27045006362129        2.22123937181310       -0.05089426096521
C           -1.83902015500770       -0.13791054396772       -0.04691969507690
O           -3.03619111018743       -0.30644827986681       -0.07227865818642
N           -0.95816016254948       -1.18917499016746       -0.03272640538779
C           -1.45276668343725       -2.55938302379500       -0.05780224544647
H            3.71459475164334        1.25515553015171        1.06542847132210
H            4.00145510143251        1.06751535187045       -0.67558727356126
H            2.73060871593867        2.16815862299843       -0.09080579143275
H            3.46177181074765       -1.57952861385576        0.04621482715481
H           -1.73817159248776        3.16929851527524       -0.02529144213593
H           -2.87877378326261        2.15406038976299       -0.95389248172164
H           -2.93360027052126        2.13598703419092        0.81086732853837
H           -1.09681066694073       -3.08596356473490        0.82534079286216
H           -1.07423944172956       -3.06385619816556       -0.94465930813415
H           -2.53825078990186       -2.52156645312511       -0.07180154791033
H            2.02919053023018       -4.65890490379382       -0.03256128537794
25
 energy: 19.982071223318 xtb: 6.6.1 (8d0f1dd)
C            3.23779046996415        1.22944920027950        0.08639098941470
N            2.26365824692922        0.16616340222300        0.03987522638551
C            2.46464163463253       -1.16439907648650        0.03025311703836
N            1.35010557700842       -1.86927573510136        0.00366546627306
C            0.37520558560531       -0.94546582336438       -0.00510429293794
C            0.89749305972177        0.33958767569484        0.01608813575386
C            0.05834786569066        1.50212305588478       -0.00413514425163
O            0.42595525276210        2.66184975341773       -0.00276118737902
N           -1.29060019599868        1.14882535820576       -0.03049160052590
C           -2.27306318304762        2.22273055081079       -0.05096304033938
C           -1.83792607691132       -0.13585634512730       -0.04672256442278
O           -3.03737677121286       -0.29663717586887       -0.07135397541816
N           -0.95984039598750       -1.19147471698405       -0.03423468175084
C           -1.44894762358707       -2.55567235698365       -0.05769395702836
H            3.71810005056143        1.26108531254051        1.06659096710791
H            4.00232044884620        1.07049255977369       -0.67466090510808
H            2.73638569759927        2.18082385500035       -0.09005497240973
H            3.45890070628534       -1.57620972248808        0.04444348837133
H           -1.73843572719381        3.16949312053774       -0.02602663742727
H           -2.87977094929844        2.15323134582729       -0.95393235310140
H           -2.93403741897504        2.13587621830343        0.81136636416718
H           -1.09702519419058       -3.08699631702796        0.82561446275432
H           -1.07440448189783       -3.06565171811791       -0.94434838415276
H           -2.53547843487858       -2.51720544553281       -0.07158433861685
H            2.03021652550917       -4.84785837324453       -0.03318628624886
25
 energy: 19.937307496129 xtb: 6.6.1 (8d0f1dd)
C            3.23874379707122        1.23341007320277        0.08592744092635
N            2.26208460816094        0.17514081041792        0.03993019499962
C            2.47219274561064       -1.15548289835496        0.03083266002720
N            1.35633132911221       -1.86284250340106        0.00322409256911
C            0.37674880129771       -0.94179156232220       -0.00527910644369
C            0.89732900521427        0.34349093356023        0.01702860119251
C            0.05601466829335        1.50439566892130       -0.00320778185590
O            0.42587719814996        2.66430237016541       -0.00212224979324
N           -1.29098035909286        1.14849942329683       -0.03027066147986
C           -2.27395728622154        2.22279576895205       -0.05088902691035
C           -1.83632505101721       -0.13511615301243       -0.04678599999945
O           -3.03573908804389       -0.29770734679725       -0.07147186102913
N           -0.95719234315290       -1.19372455648322       -0.03497410452801
C           -1.44697248226336       -2.55452192619073       -0.05798663405576
H            3.71941859656756        1.26291028873889        1.06603280530358
H            4.00245179576244        1.07083687003254       -0.67513253567684
H            2.73929777518341        2.18533855200529       -0.09080754429451
H            3.46061592166166       -1.57377564744904        0.04519357814974
H           -1.73810366134140        3.16881773530035       -0.02564319332394
H           -2.87981361433960        2.15328117692160       -0.95408811667233
H           -2.93451001348364        2.13561792963685        0.81136361261976
H           -1.09740775400303       -3.08816086181113        0.82545074247903
H           -1.07454785768781       -3.06691624385048       -0.94475321168055
H           -2.53427076825390       -2.51571490647333       -0.07194847579066
H            2.00492870475197       -4.89405439283417       -0.03258932858541
25
 energy: 19.876001211967 xtb: 6.6.1 (8d0f1dd)
C            3.23979209605341        1.23773889521608        0.08680726484054
N            2.26072006767364        0.18545385766321        0.03958029335354
C            2.48407630552128       -1.14423124269896        0.03073766347432
N            1.37174762545120       -1.85826867974471        0.00232461815978
C            0.38135258866641       -0.94426744806299       -0.00568240427699
C            0.89728344881510        0.34326373114114        0.01732519129326
C            0.05534932605823        1.50399226977843       -0.00386104893036
O            0.42666015188835        2.66393737395995       -0.00292870822455
N           -1.29150621143690        1.14728103199690       -0.03063399778720
C           -2.27430451525209        2.22217737886566       -0.05101772359667
C           -1.83359808376513       -0.13426375293600       -0.04661968221063
O           -3.03257252436066       -0.30177002953469       -0.07084500693329
N           -0.95224303078594       -1.19724712925815       -0.03538849253634
C           -1.44536559103684       -2.55423521970940       -0.05770844029813
H            3.72044679103866        1.26497860171443        1.06698393324151
H            4.00282892621101        1.07270303677970       -0.67424287752414
H            2.74256240754997        2.19073431155004       -0.08975800884028
H            3.46615495054773       -1.56986430860474        0.04397360869689
H           -1.73759110440656        3.16776618199871       -0.02608633549748
H           -2.88008826423188        2.15280249757362       -0.95405169924878
H           -2.93419580274648        2.13539276872453        0.81154032787489
H           -1.09801099296439       -3.08993612474613        0.82594338246797
H           -1.07535597362971       -3.06904884896352       -0.94467364583751
H           -2.53339413670821       -2.51470814156792       -0.07156044810394
H            1.95146621378600       -4.92135240896318       -0.03312386740912
25
 energy: 19.816935561547 xtb: 6.6.1 (8d0f1dd)
C            3.24045133170848        1.23978964513773        0.08606537126176
N            2.26117986947604        0.18925497350148        0.03916297086832
C            2.49030225737905       -1.13896814516472        0.03189111829090
N            1.38460943544252       -1.85851756183431        0.00317121751835
C            0.38543922523444       -0.95062276284083       -0.00540390980769
C            0.89720756599264        0.33983384677602        0.01789339012568
C            0.05674445605813        1.50163998031873       -0.00288616579680
O            0.42705093151034        2.66174979484997       -0.00179550127952
N           -1.29175405192569        1.14626454957442       -0.03027302430346
C           -2.27399905879140        2.22134342524873       -0.05085669497945
C           -1.83187188350577       -0.13416144977656       -0.04674914983092
O           -3.03048196817688       -0.30521126426838       -0.07143255763124
N           -0.94914917953980       -1.19872574751280       -0.03532500291310
C           -1.44506021069636       -2.55512280617843       -0.05817525760601
H            3.72114433117594        1.26676751170833        1.06617857267040
H            4.00299648291638        1.07346427920089       -0.67527458453478
H            2.74377754713727        2.19306668656394       -0.09103093355125
H            3.47104550660069       -1.56706023593021        0.04493615906983
H           -1.73744338870381        3.16710706368611       -0.02542898139636
H           -2.87961342587431        2.15272912622784       -0.95417786797899
H           -2.93452460310801        2.13489077468169        0.81138156444377
H           -1.09821068431063       -3.09095670153698        0.82554539667800
H           -1.07511417826042       -3.06970959660973       -0.94532527418172
H           -2.53297912105930       -2.51479794254779       -0.07226646767753
H            1.91046748125667       -4.91501884110314       -0.03279049131093
25
 energy: 19.775636536031 xtb: 6.6.1 (8d0f1dd)
C            3.24050575444388        1.24027767967782        0.08718103941586
N            2.26240722424127        0.18851905598702        0.03892302762022
C            2.49070346613442       -1.13867191770957        0.03111315002371
N            1.38939274920357       -1.86026398634210        0.00282956345409
C            0.38706391532647       -0.95465321200240       -0.00572109723723
C            0.89709838601471        0.33743392124170        0.01690625355385
C            0.05825211924616        1.49998039450691       -0.00421395110009
O            0.42711656488178        2.66029123881103       -0.00308999863360
N           -1.29163680228711        1.14599868959876       -0.03073328016169
C           -2.27349864024908        2.22096332690728       -0.05105062401017
C           -1.83144198069647       -0.13460536799770       -0.04661393679151
O           -3.03003045723578       -0.30614184184258       -0.07082316479417
N           -0.94867659708023       -1.19833893287069       -0.03497986089868
C           -1.44557049350327       -2.55596253113732       -0.05758711490354
H            3.72066773309262        1.26651658114418        1.06757801175379
H            4.00334495347249        1.07471386717092       -0.67403404840301
H            2.74314200158217        2.19321129223076       -0.08943023271925
H            3.47313962276719       -1.56547544056646        0.04369557219558
H           -1.73733474060683        3.16702963268496       -0.02618019670269
H           -2.87990314198634        2.15238923656392       -0.95402561408289
H           -2.93387223557683        2.13502472908861        0.81153922394551
H           -1.09780122798967       -3.09066345339672        0.82617236686888
H           -1.07534961282725       -3.06975832015034       -0.94471917281922
H           -2.53311085888806       -2.51518057765983       -0.07133592449449
H            1.89760696645644       -4.90360546176612       -0.03436609493198
25
 energy: 19.764889853819 xtb: 6.6.1 (8d0f1dd)
C            3.24057940245971        1.24030976864544        0.08615265075619
N            2.26312612400196        0.18755046744417        0.03902436886115
C            2.48977512614247       -1.13926881887800        0.03201354590101
N            1.38979164254832       -1.86107528796923        0.00394194029352
C            0.38724185493039       -0.95557371580847       -0.00529120908741
C            0.89694316290289        0.33690656133508        0.01733475362310
C            0.05872983790982        1.49961709880510       -0.00312682510516
O            0.42694127740591        2.66004365134723       -0.00188508990574
N           -1.29161778196299        1.14614962520790       -0.03025895634502
C           -2.27341386685500        2.22093091744432       -0.05085112991630
C           -1.83148499487625       -0.13496764788638       -0.04671963373959
O           -3.03015089761357       -0.30592790201171       -0.07148830337628
N           -0.94896936844567       -1.19770895762471       -0.03485960747364
C           -1.44577673345767       -2.55624195803549       -0.05814344315484
H            3.72099760463302        1.26709484892816        1.06636529437827
H            4.00323558056171        1.07429107331626       -0.67525129261548
H            2.74273170261024        2.19278227490510       -0.09095035982371
H            3.47343874027527       -1.56477187816369        0.04495128322670
H           -1.73747999879993        3.16712604416903       -0.02549996349297
H           -2.87948708614156        2.15257721658395       -0.95412936870135
H           -2.93432752954614        2.13482796860696        0.81138364309642
H           -1.09789161267025       -3.09061646366355        0.82554466406646
H           -1.07480944363182       -3.06920835659670       -0.94529158737625
H           -2.53314060447895       -2.51540143208252       -0.07223267161415
H            1.89723253003430       -4.90041649584622       -0.03369880632765
25
 energy: 19.763281464152 xtb: 6.6.1 (8d0f1dd)
C            3.24053306488269        1.24038426847924        0.08710746411235
N            2.26350792991947        0.18708862526815        0.03896138903614
C            2.48918378985186       -1.13955049395214        0.03119295173760
N            1.38951602579777       -1.86127004948678        0.00328085538628
C            0.38719242313347       -0.95552868294430       -0.00570843141761
C            0.89682969851404        0.33698008685342        0.01654219512223
C            0.05887903503282        1.49965601407411       -0.00422581659853
O            0.42688890300510        2.66012511447724       -0.00301670719223
N           -1.29157194676118        1.14632073710648       -0.03068710287102
C           -2.27336409601203        2.22097261029254       -0.05103599056420
C           -1.83150583128564       -0.13530784032114       -0.04663267876896
O           -3.03028183209849       -0.30557169753099       -0.07090938560819
N           -0.94919970543237       -1.19732933040790       -0.03477670074055
C           -1.44586812101874       -2.55634617750823       -0.05756049577735
H            3.72059695649927        1.26648603344256        1.06752944881782
H            4.00348996128369        1.07488022919406       -0.67406333098738
H            2.74245669338986        2.19271291886074       -0.08952014487303
H            3.47347567947032       -1.56429310786392        0.04401480774231
H           -1.73743926282565        3.16717723087217       -0.02614240348234
H           -2.87986912026063        2.15241563334039       -0.95402698371216
H           -2.93389672717765        2.13503186447746        0.81151482390233
H           -1.09752128001765       -3.09024837865350        0.82617583670377
H           -1.07509549871565       -3.06929379301814       -0.94465690570210
H           -2.53319137945320       -2.51543374059158       -0.07129121647027
H            1.89846930821474       -4.90102947228794       -0.03503158164763
