25
 energy: 0.000000000000 xtb: 6.6.1 (8d0f1dd)
C            3.23720132972391        1.16630909158653        0.08434468864950
N            2.29877796055224        0.07527476373246        0.03981602671198
C            2.58028186251803       -1.21425391179017        0.03006175752192
N            1.43813944744728       -1.93419254010258        0.00098261751768
C            0.39035684826767       -1.05887462812143       -0.00790371763344
C            0.93510047688824        0.21347817468824        0.01709077332874
C            0.09450143016486        1.40504290868848       -0.00410946993748
O            0.49712746915594        2.54126690785742       -0.00342325656480
N           -1.25076628431515        1.06271869620815       -0.03085477937476
C           -2.21907191394203        2.15522079838987       -0.05001256521996
C           -1.81739470187490       -0.20012724136556       -0.04692818139228
O           -2.99983858926755       -0.37846413507442       -0.07008877579474
N           -0.92618577614240       -1.30210203518959       -0.03682761236648
C           -1.46982251276835       -2.64643077634382       -0.06029819901142
H            3.71247229913541        1.21471443890471        1.06488839270555
H            4.00791460421487        1.03430799217987       -0.67357688121503
H            2.69909982127087        2.09770098766290       -0.09130154035862
H            3.56654087521359       -1.63682977417947        0.04233139674524
H           -1.67107945562430        3.09322822573871       -0.02552706696334
H           -2.82428927394145        2.09428605349656       -0.95318074103337
H           -2.87644002486466        2.07745706351925        0.81450059976605
H           -1.17061985538665       -3.19584861009707        0.83242224714061
H           -1.14560246782873       -3.17511580834413       -0.95688266944647
H           -2.55549768731684       -2.55659960601237       -0.07459039105944
H            1.38130842369251       -2.94313824728853       -0.01389874052104
25
 energy: -0.100850534919 xtb: 6.6.1 (8d0f1dd)
C            3.23271782830015        1.18021740697674        0.08600635158630
N            2.29476173388696        0.08958535462672        0.03776257787847
C            2.58836780976162       -1.24366389273818        0.03038521337732
N            1.44166829059049       -2.00768996162672        0.00010798635753
C            0.40401693655135       -1.08546973179219       -0.00835890896113
C            0.92121855768388        0.21203529203644        0.01516287602501
C            0.09556350142310        1.40252720489015       -0.00457568618009
O            0.49165970048469        2.56986090200089       -0.00327736609965
N           -1.26730672708913        1.06828173464984       -0.03083316757968
C           -2.23334454543462        2.16578224976132       -0.05009936619228
C           -1.82196343797663       -0.18621932295307       -0.04708536945524
O           -3.01887242811671       -0.36654791777352       -0.07052897197447
N           -0.93248060139278       -1.29415703704704       -0.03676106615582
C           -1.46960576128293       -2.62875867011376       -0.05976428898194
H            3.71555348204646        1.23072511084469        1.06615355623802
H            4.00418429413598        1.04691764553338       -0.67429041674263
H            2.70354938625338        2.11687121067384       -0.08955746392679
H            3.57133452619047       -1.64368390304280        0.04355858088690
H           -1.68468676886925        3.10538987350148       -0.02548906564757
H           -2.84195619046697        2.11232934550607       -0.95292117212869
H           -2.89495859983517        2.09543862894001        0.81326420504250
H           -1.15200677896315       -3.16983219360095        0.83265382380736
H           -1.12760541020847       -3.14900601376774       -0.95560973472029
H           -2.55443968067113       -2.54182134603798       -0.07375483536739
H            1.44684518797092       -3.09008318070361       -0.01511437889120
25
 energy: 11.868024562626 xtb: 6.6.1 (8d0f1dd)
C            3.22737441384781        1.18590744787153        0.08701719434951
N            2.28746064539982        0.09637991394016        0.03445309290527
C            2.58782030401308       -1.26601500927778        0.03141734964638
N            1.44229465141556       -2.07786080843486       -0.00038698045829
C            0.41529546680349       -1.11431513159518       -0.00903223412478
C            0.90504491263659        0.20134693397095        0.01284802266046
C            0.09528603681873        1.38936998362196       -0.00484863561764
O            0.48024750501561        2.57012837407394       -0.00269989574312
N           -1.28790480781971        1.08095594813084       -0.03073001640226
C           -2.24925458485100        2.18377579126054       -0.05023813722436
C           -1.82412833749636       -0.16598757873238       -0.04709254114814
O           -3.02579889140193       -0.35448965043641       -0.07100651610981
N           -0.93962509257603       -1.27600693742879       -0.03648794855687
C           -1.46898631535632       -2.60547025582747       -0.05911900029617
H            3.71585045602079        1.24337812889023        1.06639226979341
H            4.00024819225715        1.05882890583341       -0.67522956612409
H            2.70551604842652        2.12855922468250       -0.08733248743629
H            3.57493863517026       -1.63726280853251        0.04527153689132
H           -1.70054756040727        3.12448611229880       -0.02524891678525
H           -2.86102300445354        2.13468714005886       -0.95245075328621
H           -2.91514972588309        2.11754867045073        0.81143381573323
H           -1.13303346899981       -3.14001417864620        0.83174054549570
H           -1.10959376223676       -3.11916951950721       -0.95313237495611
H           -2.55336304734833       -2.53098572062317       -0.07273711818923
H            1.54324563597721       -3.23874618729848       -0.01576679282209
25
 energy: 21.410860551953 xtb: 6.6.1 (8d0f1dd)
C            3.22542409060269        1.18604394754137        0.08717150230537
N            2.28574569604026        0.09642915800423        0.03231122045867
C            2.58401854362415       -1.27491488269308        0.03235645971164
N            1.43990824674289       -2.10472733735975       -0.00034427236424
C            0.41869378755180       -1.12495932687711       -0.00942743404801
C            0.89965388220445        0.19467605796186        0.01189518934648
C            0.09519666301432        1.38422958879981       -0.00468509495807
O            0.47502818803794        2.56494945712053       -0.00221310265602
N           -1.29821488046396        1.09242815113924       -0.03063409102328
C           -2.25791490614787        2.19533020840623       -0.05042065637471
C           -1.82623725749989       -0.15513569029078       -0.04708301785449
O           -3.02704582145359       -0.35280735292845       -0.07140001942351
N           -0.94213260722665       -1.26208188259555       -0.03612272169724
C           -1.46735437836421       -2.59361028348534       -0.05866438734886
H            3.71384629456683        1.24690969165007        1.06656423063922
H            3.99824785156618        1.06396513127628       -0.67592828052661
H            2.70470041316007        2.13093843417838       -0.08629912719602
H            3.57723034126999       -1.63173874077013        0.04571278917331
H           -1.71091433952226        3.13671610289579       -0.02504190684284
H           -2.87041447900055        2.14581737234819       -0.95247465876556
H           -2.92533701935299        2.12838785113348        0.81038460392244
H           -1.12296994706750       -3.12447269368982        0.83133315503825
H           -1.10020313164215       -3.10364478078014       -0.95179035813160
H           -2.55193009489636       -2.53016823767228       -0.07204785642937
H            1.59518916922890       -3.31953115456898       -0.01611825276042
25
 energy: 27.747808415512 xtb: 6.6.1 (8d0f1dd)
C            3.22606548190645        1.18611529025604        0.08724121884503
N            2.28683250545735        0.09653183786350        0.03113824967146
C            2.57963277872888       -1.27660190778133        0.03346723454153
N            1.43534213023400       -2.10826341981348        0.00007811889975
C            0.41779909432496       -1.12457348527416       -0.00957532914009
C            0.89929190253615        0.19386214051589        0.01172181976737
C            0.09525983465115        1.38514779865496       -0.00459689731355
O            0.47221122562887        2.56368683718382       -0.00202587932434
N           -1.30177237677906        1.09897424472124       -0.03060613848434
C           -2.26115063056811        2.19971959888869       -0.05053435211298
C           -1.82852572587088       -0.15084531765028       -0.04708418936011
O           -3.02767903495952       -0.35387085669167       -0.07158056363690
N           -0.94332124722455       -1.25348025883239       -0.03577914328825
C           -1.46599151481851       -2.58899986762981       -0.05844478252270
H            3.71332264848171        1.24784496620933        1.06681617818814
H            3.99851061554196        1.06580776696502       -0.67597560019307
H            2.70509287366460        2.13162209854166       -0.08620315331863
H            3.57584815114015       -1.62787493359079        0.04507421684460
H           -1.71553427443157        3.14144726956818       -0.02498844770122
H           -2.87334287171262        2.14861769002002       -0.95279269934084
H           -2.92854006792123        2.13102641243368        0.81025383353506
H           -1.11883253302298       -3.11799694279694        0.83119743119148
H           -1.09628246326401       -3.09710320602421       -0.95128018892772
H           -2.55057102072691       -2.53162497086359       -0.07180556010954
H            1.61854882397623       -3.37013999612931       -0.01668146451553
25
 energy: 35.825664263496 xtb: 6.6.1 (8d0f1dd)
C            3.22787130412629        1.18776712676624        0.08718572834135
N            2.28965088553739        0.09809717464638        0.02976076889698
C            2.57275903926343       -1.27467118298798        0.03669258460189
N            1.42717290502865       -2.09889863795093        0.00195118537986
C            0.41388532882030       -1.11767890727282       -0.00996456060951
C            0.90079298399541        0.19721162623002        0.01193506031980
C            0.09515088063008        1.39005319619578       -0.00445391960897
O            0.46856627235706        2.56573306843952       -0.00210293731517
N           -1.30358619754236        1.10499383940807       -0.03053299633578
C           -2.26303732040544        2.20233350926583       -0.05057967403317
C           -1.83225726830357       -0.14783217794818       -0.04708785869062
O           -3.02910463355686       -0.35433228317752       -0.07162169986693
N           -0.94526258300179       -1.24387876448427       -0.03553107408637
C           -1.46453004094915       -2.58539699234407       -0.05839566906993
H            3.71340978391032        1.24954143746933        1.06707327596464
H            3.99997197844122        1.06793127016481       -0.67570797172944
H            2.70645292927392        2.13347140346303       -0.08677987603129
H            3.57143990370907       -1.62247433003166        0.04312774387707
H           -1.71959426679046        3.14486153534629       -0.02495906364106
H           -2.87501927784408        2.14976143944932       -0.95299622683842
H           -2.93027152773990        2.13203462409538        0.81032347503732
H           -1.11526308547433       -3.11193804233977        0.83106674060162
H           -1.09279539006385       -3.09098169095613       -0.95108842549853
H           -2.54892958746414       -2.53284561144817       -0.07178676271302
H            1.64474128901522       -3.45383384125449       -0.01849393475779
25
 energy: 32.940744825943 xtb: 6.6.1 (8d0f1dd)
C            3.23136949457378        1.19311924405800        0.08679730506974
N            2.29073654848993        0.10775504890822        0.02662315573305
C            2.54406680888251       -1.26420036050030        0.04503556703454
N            1.40238130433225       -2.07456175029821        0.00943669768076
C            0.40399776623196       -1.09665729153168       -0.01118198788755
C            0.89893690105973        0.21222061599748        0.01261849432696
C            0.09470996878397        1.40534434366920       -0.00358766049615
O            0.45523010639210        2.57381913772404       -0.00277602970872
N           -1.31060320433293        1.12498430810490       -0.03021417151322
C           -2.26885866869220        2.21272390025091       -0.05072868115142
C           -1.83980720334407       -0.13655053376697       -0.04710048866170
O           -3.03120045957665       -0.35253587917689       -0.07167793230873
N           -0.95161896086940       -1.21339608988170       -0.03528014710933
C           -1.46148091275120       -2.57219748259485       -0.05820302390093
H            3.71304794432948        1.25268036737287        1.06714741650242
H            4.00138656417371        1.07173726882528       -0.67598871345385
H            2.71175585757182        2.14146563595015       -0.08768238600328
H            3.55156297161971       -1.60205913106758        0.03935546915487
H           -1.72848430940640        3.15571453934505       -0.02489979291577
H           -2.87975216784107        2.15539842288737       -0.95381504047007
H           -2.93525713742711        2.13744740499051        0.81067942554559
H           -1.10589493212616       -3.09504979842501        0.82894599805921
H           -1.08379802437847       -3.07439519550764       -0.94850672284510
H           -2.54559875275154       -2.53418674159021       -0.07161297859075
H            1.75538680202871       -3.73959119499890       -0.02634985989600
25
 energy: 25.016770659315 xtb: 6.6.1 (8d0f1dd)
C            3.23314317977668        1.19660923693088        0.08700440364324
N            2.28507387307499        0.11525991301778        0.02683013560447
C            2.49797711452535       -1.24397572337657        0.04576267527861
N            1.37578431601533       -2.02362889498679        0.01376328644607
C            0.39369360551369       -1.06103833627076       -0.01058677009741
C            0.89835407610115        0.23765515212627        0.01325889645004
C            0.09113664980908        1.43028792754200       -0.00407587285624
O            0.44062948417083        2.58481053489795       -0.00289177232783
N           -1.31020833772691        1.14532462409261       -0.03026131533760
C           -2.27179870071917        2.22178036204104       -0.05095452326841
C           -1.84297094011150       -0.13047533021147       -0.04696996033489
O           -3.02973202573934       -0.34707683963978       -0.07175665136538
N           -0.95378612998654       -1.18563288356766       -0.03385585633444
C           -1.45751640856760       -2.56134704357669       -0.05769336254886
H            3.71185044736009        1.25307778578146        1.06661816812057
H            4.00071602556058        1.07218283309785       -0.67556829019988
H            2.71810898934739        2.14889216395968       -0.08807955549153
H            3.51609490797529       -1.58340119008760        0.03782385533689
H           -1.73650352557784        3.16637583651848       -0.02514740059903
H           -2.88219508258298        2.15919864625996       -0.95409364737366
H           -2.93776516465315        2.14120300038853        0.81044315402552
H           -1.09666129694955       -3.08186668957171        0.82603634089922
H           -1.07476661804433       -3.06116218869426       -0.94467136760564
H           -2.54183873397515       -2.53400028143677       -0.07132669691847
H            1.88539460037603       -4.07002382649037       -0.03257396095081
25
 energy: 20.701976571916 xtb: 6.6.1 (8d0f1dd)
C            3.23201249499262        1.20122314720282        0.08737784195183
N            2.27160732788492        0.12403082774438        0.03311592889226
C            2.46190387723233       -1.21141031695886        0.03405134952428
N            1.36268175271434       -1.94261028230612        0.00859441070247
C            0.38722850599168       -1.01093341980968       -0.00656693644468
C            0.89870827209735        0.27920513449310        0.01285882203982
C            0.08058798729433        1.46287303795813       -0.00642071158428
O            0.43413045084853        2.61484478072222       -0.00197229039964
N           -1.29763688199846        1.14707068441073       -0.03082393669036
C           -2.26890890969498        2.22086795770163       -0.05097187215657
C           -1.83922160373236       -0.13720272570036       -0.04669717823451
O           -3.03056694676303       -0.32880396547587       -0.07178342980531
N           -0.95212952303850       -1.18635766204998       -0.03143841014321
C           -1.45475124379485       -2.56213490695721       -0.05709821480377
H            3.71162642536412        1.25013106869089        1.06602723553782
H            3.99884058684542        1.06659878175588       -0.67481841933454
H            2.72333431251697        2.15451636036905       -0.08838146362349
H            3.47742950145768       -1.58124532792260        0.04363383041973
H           -1.73743315615578        3.16861545374995       -0.02556447660557
H           -2.87953078515418        2.15686611093373       -0.95345000777533
H           -2.93451001274431        2.13905677844058        0.81013760152072
H           -1.09611578534268       -3.08450620725616        0.82593367947033
H           -1.07373988775644       -3.06261338776603       -0.94388246313611
H           -2.53948443853469       -2.52757207871255       -0.07120834748064
H            1.97615198444240       -4.36148105451367       -0.03361862964670
25
 energy: 20.074602566742 xtb: 6.6.1 (8d0f1dd)
C            3.23521008982641        1.21633598404719        0.08557935265090
N            2.26613431979445        0.14548017126628        0.03748346101953
C            2.45617361655636       -1.18335349903849        0.03106584402486
N            1.35275633247044       -1.89116738015637        0.00599772683041
C            0.37895012990797       -0.96823289534599       -0.00507962657065
C            0.89810056618988        0.31826115238621        0.01479849889547
C            0.06705266849240        1.48901462928355       -0.00390421818797
O            0.42829140520347        2.64632055633957       -0.00130587319259
N           -1.29164155923334        1.14769136785790       -0.03023230633284
C           -2.27044985297562        2.22123916573305       -0.05089425624339
C           -1.83901998438883       -0.13791053117279       -0.04691969072383
O           -3.03619082849856       -0.30644825143544       -0.07227865148062
N           -0.95816007365420       -1.18917487983931       -0.03272640235153
C           -1.45276654865384       -2.55938278634298       -0.05780224008375
H            3.71459440701418        1.25515541370208        1.06542837247478
H            4.00145473018929        1.06751525282952       -0.67558721088226
H            2.73060846260084        2.16815842184306       -0.09080578300806
H            3.46177148957466       -1.57952846731175        0.04621482286713
H           -1.73817143122532        3.16929822123706       -0.02529143978946
H           -2.87877351617846        2.15406018991561       -0.95389239322231
H           -2.93359999835047        2.13598683602033        0.81086725330849
H           -1.09681056518187       -3.08596327842829        0.82534071628947
H           -1.07423934206479       -3.06385591391001       -0.94465922049144
H           -2.53825055441043       -2.52156621918160       -0.07180154124879
H            2.02919034196786       -4.65890447155435       -0.03256128235700
25
 energy: 19.982047678242 xtb: 6.6.1 (8d0f1dd)
C            3.23779016957149        1.22944908621482        0.08639098139960
N            2.26365803691368        0.16616338680685        0.03987522268600
C            2.46464140597034       -1.16439896845698        0.03025311423156
N            1.35010545174960       -1.86927556167546        0.00366546593299
C            0.37520555079484       -0.94546573564685       -0.00510429246438
C            0.89749297645501        0.33958764418890        0.01608813426125
C            0.05834786027732        1.50212291652223       -0.00413514386798
O            0.42595521324323        2.66184950645915       -0.00276118712285
N           -1.29060007626059        1.14882525162113       -0.03049159769698
C           -2.27306297215951        2.22273034459240       -0.05096303561118
C           -1.83792590639395       -0.13585633252295       -0.04672256008800
O           -3.03737648941399       -0.29663714834775       -0.07135396879815
N           -0.95984030693634       -1.19147460644254       -0.03423467857465
C           -1.44894748915798       -2.55567211987590       -0.05769395167568
H            3.71809970560706        1.26108519554073        1.06659086815274
H            4.00232007752270        1.07049246045654       -0.67466084251503
H            2.73638544372547        2.18082365266994       -0.09005496405469
H            3.45890038537872       -1.57620957625198        0.04444348424799
H           -1.73843556590686        3.16949282648150       -0.02602663501260
H           -2.87977068212177        2.15323114605683       -0.95393226459837
H           -2.93403714676369        2.13587602014313        0.81136628889100
H           -1.09702509241181       -3.08699603062553        0.82561438615624
H           -1.07440438221775       -3.06565143369577       -0.94434829653890
H           -2.53547819964436       -2.51720521199390       -0.07158433197547
H            2.03021633715166       -4.84785792347451       -0.03318628316993
25
 energy: 19.937283805641 xtb: 6.6.1 (8d0f1dd)
C            3.23874349659011        1.23340995877062        0.08592743295426
N            2.26208439829139        0.17514079416887        0.03993019129501
C            2.47219251624788       -1.15548279115266        0.03083265716664
N            1.35633120327578       -1.86284233057202        0.00322409226999
C            0.37674876634407       -0.94179147494555       -0.00527910595391
C            0.89732892196273        0.34349090169215        0.01702859961265
C            0.05601466309647        1.50439552934790       -0.00320778155829
O            0.42587715863833        2.66430212297928       -0.00212224959634
N           -1.29098023931950        1.14849931674244       -0.03027065867144
C           -2.27395707525048        2.22279556272761       -0.05088902218902
C           -1.83632488064838       -0.13511614047675       -0.04678599565878
O           -3.03573880639696       -0.29770731917684       -0.07147185439818
N           -0.95719225434741       -1.19372444573297       -0.03497410128322
C           -1.44697234801751       -2.55452168918971       -0.05798662867593
H            3.71941825149086        1.26291017156979        1.06603270640020
H            4.00245142442675        1.07083677068345       -0.67513247304003
H            2.73929752103943        2.18533834925602       -0.09080753586965
H            3.46061560059591       -1.57377550143877        0.04519357395681
H           -1.73810350008526        3.16881744130677       -0.02564319094484
H           -2.87981334715898        2.15328097714651       -0.95408802815484
H           -2.93450974122844        2.13561773150051        0.81136353734383
H           -1.09740765218877       -3.08816057530066        0.82545066589614
H           -1.07454775799442       -3.06691595931102       -0.94475312402913
H           -2.53427053313172       -2.51571467307271       -0.07194846911549
H            2.00492851874059       -4.89405393877822       -0.03258932556187
25
 energy: 19.875977245738 xtb: 6.6.1 (8d0f1dd)
C            3.23979179547504        1.23773878038231        0.08680725678682
N            2.26071985793069        0.18545384045735        0.03958028968140
C            2.48407607505600       -1.14423113654056        0.03073766062257
N            1.37174749818450       -1.85826850734002        0.00232461794411
C            0.38135255328564       -0.94426736045664       -0.00568240374979
C            0.89728336556778        0.34326369929414        0.01732518968588
C            0.05534932092308        1.50399213024246       -0.00386104857214
O            0.42666011230408        2.66393712680769       -0.00292870795283
N           -1.29150609161476        1.14728092555554       -0.03063399494507
C           -2.27430430424882        2.22217717269859       -0.05101771886340
C           -1.83359791364930       -0.13426374047940       -0.04661967788539
O           -3.03257224300751       -0.30177000153736       -0.07084500036050
N           -0.95224294243964       -1.19724701818109       -0.03538848925310
C           -1.44536545694008       -2.55423498273498       -0.05770843494411
H            3.72044644586656        1.26497848435344        1.06698383424988
H            4.00282855484033        1.07270293725747       -0.67424281496987
H            2.74256215310311        2.19073410830016       -0.08975800051280
H            3.46615462896808       -1.56986416295735        0.04397360461715
H           -1.73759094319798        3.16776588810269       -0.02608633307727
H           -2.88008799702577        2.15280229784295       -0.95405161073467
H           -2.93419553052044        2.13539257060908        0.81154025258257
H           -1.09801089109416       -3.08993583807096        0.82594330583938
H           -1.07535587386135       -3.06904856422621       -0.94467355819347
H           -2.53339390166736       -2.51470790826071       -0.07156044146477
H            1.95146603273471       -4.92135195237460       -0.03312386433599
25
 energy: 19.816911409340 xtb: 6.6.1 (8d0f1dd)
C            3.24045103106895        1.23978953011370        0.08606536327687
N            2.26117965969043        0.18925495594296        0.03916296723489
C            2.49030202633614       -1.13896803949461        0.03189111533214
N            1.38460930698253       -1.85851738940652        0.00317121722413
C            0.38543918947452       -0.95062267464485       -0.00540390930633
C            0.89720748275236        0.33983381524724        0.01789338846558
C            0.05674445079355        1.50163984100100       -0.00288616552903
O            0.42705089188981        2.66174954790066       -0.00179550111294
N           -1.29175393208055        1.14626444322737       -0.03027302149482
C           -2.27399884781647        2.22134321915903       -0.05085669026112
C           -1.83187171355009       -0.13416143732946       -0.04674914549367
O           -3.03048168701769       -0.30521123595178       -0.07143255100394
N           -0.94914909148053       -1.19872563629856       -0.03532499963575
C           -1.44506007662793       -2.55512256912166       -0.05817525220868
H            3.72114398593913        1.26676739418137        1.06617847375349
H            4.00299611153016        1.07346417960804       -0.67527452188479
H            2.74377729257767        2.19306648309767       -0.09103092510567
H            3.47104518456731       -1.56706009054298        0.04493615490079
H           -1.73744322750893        3.16710676985124       -0.02542897903713
H           -2.87961315871226        2.15272892650397       -0.95417777945318
H           -2.93452433085146        2.13489057661281        0.81138148916618
H           -1.09821058242188       -3.09095641476712        0.82554532008633
H           -1.07511407851449       -3.06970931181112       -0.94532518647723
H           -2.53297888605696       -2.51479770923224       -0.07226646097286
H            1.91046730400912       -4.91501838510217       -0.03279048826872
25
 energy: 19.775612366069 xtb: 6.6.1 (8d0f1dd)
C            3.24050545379930        1.24027756460851        0.08718103132746
N            2.26240701434179        0.18851903849678        0.03892302400906
C            2.49070323505429       -1.13867181206694        0.03111314713712
N            1.38939262029980       -1.86026381375229        0.00282956319157
C            0.38706387941582       -0.95465312343249       -0.00572109670644
C            0.89709830278456        0.33743388993557        0.01690625198534
C            0.05825211384170        1.49998025534315       -0.00421395070913
O            0.42711652525516        2.66029099199704       -0.00308999834692
N           -1.29163668245285        1.14599858327638       -0.03073327731035
C           -2.27349842932057        2.22096312085284       -0.05105061927384
C           -1.83144181078068       -0.13460535550941       -0.04661393246681
O           -3.03003017611848       -0.30614181343964       -0.07082315822341
N           -0.94867650906481       -1.19833882169233       -0.03497985765335
C           -1.44557035938750       -2.55596229400264       -0.05758710956078
H            3.72066738790003        1.26651646364050        1.06757791270705
H            4.00334458205394        1.07471376746213       -0.67403398586812
H            2.74314174708153        2.19321108875108       -0.08943022442218
H            3.47313930053953       -1.56547529532626        0.04369556814163
H           -1.73733457942203        3.16702933885728       -0.02618019427377
H           -2.87990287479741        2.15238903687159       -0.95402552557120
H           -2.93387196338081        2.13502453100730        0.81153914865329
H           -1.09780112613891       -3.09066316665407        0.82617229021904
H           -1.07534951305948       -3.06975803534720       -0.94471908517096
H           -2.53311062387350       -2.51518034430878       -0.07133591787615
H            1.89760679040205       -4.90360500682405       -0.03436609174359
25
 energy: 19.764865694558 xtb: 6.6.1 (8d0f1dd)
C            3.24057910180830        1.24030965357315        0.08615264276320
N            2.26312591403578        0.18755045004379        0.03902436524058
C            2.48977489514847       -1.13926871317999        0.03201354293089
N            1.38979151360754       -1.86107511530415        0.00394193992780
C            0.38724181900323       -0.95557362715316       -0.00529120859651
C            0.89694307968715        0.33690653007788        0.01733475201483
C            0.05872983246104        1.49961695967504       -0.00312682481506
O            0.42694123779556        2.66004340455621       -0.00188508973085
N           -1.29161766213050        1.14614951887151       -0.03025895353768
C           -2.27341365593436        2.22093071139289       -0.05085112519848
C           -1.83148482495647       -0.13496763536448       -0.04671962940508
O           -3.03015061648509       -0.30592787362862       -0.07148829674381
N           -0.94896928040309       -1.19770884650480       -0.03485960423947
C           -1.44577659932276       -2.55624172087489       -0.05814343776046
H            3.72099725940982        1.26709473137083        1.06636519544404
H            4.00323520915330        1.07429097364670       -0.67525122996765
H            2.74273144814767        2.19278207146522       -0.09095035138560
H            3.47343841801985       -1.56477173298876        0.04495127905625
H           -1.73747983760165        3.16712575033240       -0.02549996112716
H           -2.87948681899123        2.15257701687418       -0.95412928018004
H           -2.93432725730787        2.13482777054391        0.81138356781864
H           -1.09789151081110       -3.09061617692526        0.82554458747486
H           -1.07480934391417       -3.06920807184459       -0.94529149967488
H           -2.53314036946163       -2.51540119871098       -0.07223266491262
H            1.89723235401465       -4.90041604120001       -0.03369880320117
25
 energy: 19.763257328108 xtb: 6.6.1 (8d0f1dd)
C            3.24053276423558        1.24038415340004        0.08710745603078
N            2.26350771991787        0.18708860791062        0.03896138542142
C            2.48918355891272       -1.13955038822800        0.03119294884361
N            1.38951589688257       -1.86126987680363        0.00328085508189
C            0.38719238721090       -0.95552859429316       -0.00570843088800
C            0.89682961530882        0.33698005558940        0.01654219358749
C            0.05887902957020        1.49965587494044       -0.00422581620647
O            0.42688886339960        2.66012486767867       -0.00301670691235
N           -1.29157182693294        1.14632063075422       -0.03068710002396
C           -2.27336388509600        2.22097240423724       -0.05103598582923
C           -1.83150566136392       -0.13530782776768       -0.04663267444252
O           -3.03028155095787       -0.30557166918095       -0.07090937902943
N           -0.94919961736842       -1.19732921932321       -0.03477669751407
C           -1.44586798687535       -2.55634594033796       -0.05756049043706
H            3.72059661131324        1.26648591594172        1.06752934977558
H            4.00348958985168        1.07488012946984       -0.67406326844977
H            2.74245643895281        2.19271271542729       -0.08952013656761
H            3.47347535721148       -1.56429296273341        0.04401480365875
H           -1.73743910163115        3.16717693703080       -0.02614240105692
H           -2.87986885307486        2.15241543364561       -0.95402689520035
H           -2.93389645497935        2.13503166639549        0.81151474861237
H           -1.09752117819286       -3.09024809194936        0.82617576005361
H           -1.07509539897146       -3.06929350825810       -0.94465681805961
H           -2.53319114443117       -2.51543350721705       -0.07129120985608
H            1.89846913208035       -4.90102901758486       -0.03503157839750
