72
 energy: -99.297600834505 gnorm: 0.001723035254 xtb: 6.6.1 (8d0f1dd)
N           -1.69675683746808        3.13397642539272        2.30025478534861
C           -1.78475110374322        2.28894583499293        1.38317056703701
C           -2.97167041837206        2.14666221619917        0.47438946300462
C           -3.43816931482467        0.69966143291083        0.48932958723550
C           -4.06835595307391        0.15855339195471       -0.57057815951606
C           -4.46634298318705       -1.24737161202432       -0.70624800475103
O           -3.54846533437520       -1.90719800439099       -1.60048302445048
C           -4.05811445047790       -2.16660408047388       -2.88645270224866
C           -4.40444089191304       -1.97181022624943        0.62892082199192
O           -5.03167844567325       -3.14978098114256        0.59016904051551
C           -5.08317404678635       -3.95214483920196        1.75306222954369
C           -3.74225211511993       -1.41178127976362        1.69248829343859
C           -3.22862933266181       -0.11711961103792        1.63227265407982
C           -2.49296269716864        2.53168465323047       -0.95060776588128
C           -1.63958731614524        1.47735593514463       -1.67682094333492
C           -0.31570778127197        1.26054022355436       -1.06416679884717
N            0.25825834210514        0.09019427271516       -0.84923097119687
C            1.62785773269257        0.02199156963260       -0.39428096473324
C            2.59214711183063       -0.36495824346295       -1.53271990298982
C            4.01413379384001       -0.19255543628814       -1.07655986988123
C            4.65461229973775        1.02668226261701       -1.22805328091158
C            5.95550122620421        1.20601565580521       -0.78480767068736
C            6.64207716261370        0.16680534645450       -0.17358446649780
O            7.90283296696404        0.22674138300601        0.29336366408924
C            8.63002087286373        1.42588013711128        0.15550180563047
C            5.99193661433353       -1.08795052664864       -0.01024612081254
O            6.73211765857758       -2.04097425070560        0.59006462268019
C            6.18755509344132       -3.32605516229675        0.77219443774853
C            4.69025025754061       -1.24311868932975       -0.46104243637391
C           -0.37220498448185       -1.16461546870004       -1.18209572002298
C           -4.18585858346388        3.03922412680850        0.86412049518390
C           -4.70659784646955        2.71137573202806        2.26120909861616
C           -3.88948763937762        4.53392405214899        0.77128701613911
H           -5.48418431156626       -1.35494179908986       -1.10850013818385
H           -4.90700907987463       -2.85628648452510       -2.84504013863676
H           -3.24555371540572       -2.62833936258437       -3.44518509494114
H           -4.36660316454202       -1.24259183529502       -3.38750521217358
H           -5.56559873116481       -3.41919370480997        2.57656892814476
H           -5.67584680923247       -4.82417738444136        1.48415338180860
H           -4.08247951289443       -4.26970289625808        2.05751869830462
H           -3.62388194229403       -1.96671566098883        2.61108761359482
H           -2.68598043776368        0.27892875504252        2.47670270997425
H           -3.38160582896237        2.69842537653357       -1.55905243011857
H           -1.93627125582014        3.46726325648118       -0.88898315831543
H           -2.21275963887059        0.55343485545727       -1.76036131611722
H           -1.47573482242411        1.85751935692380       -2.69322114449765
H           -0.97991767408565        1.57638381152508        1.12603668637176
H            0.27503615973041        2.13684425586384       -0.83684765039354
H            1.70270011939087       -0.71290451813854        0.41212810818794
H            1.92558206577862        0.99535542154036        0.00125369204109
H            2.39987237413426        0.28479010318022       -2.38845536768895
H            2.41395254754836       -1.39742460630813       -1.83389206840858
H            4.14502244060500        1.84833606740442       -1.70822781781945
H            6.42970940300459        2.16332877466555       -0.92531303560208
H            8.15163854272070        2.24881567765452        0.69532232586805
H            8.75299642016595        1.70079074961084       -0.89632502090925
H            9.60638730985810        1.22710881932193        0.59301895159245
H            6.97000967643273       -3.90874684850534        1.25444911268584
H            5.30545345108620       -3.30030506850660        1.42006532101961
H            5.92740760228917       -3.79104853683959       -0.18373018362806
H            4.19123813585379       -2.19294149872550       -0.34900262582427
H           -0.32643433436256       -1.35022659776493       -2.25740158629203
H           -1.42006357112130       -1.17954370415698       -0.88266867947466
H            0.14457332042466       -1.97156076737087       -0.66822533725938
H           -4.97539441291266        2.79429280094082        0.14288822508348
H           -3.95599916199352        2.95474579445552        3.00721209495428
H           -4.97004046183584        1.65963839096222        2.34848839003569
H           -5.59668304389137        3.30077590546576        2.46453082710233
H           -3.06630421112191        4.79254259592170        1.43003464324548
H           -3.64917637269370        4.83919763270493       -0.24306007716077
H           -4.76800876627292        5.09106639150761        1.08606664345163
H           -0.83762576757975        3.15902976365564        2.84091679343699
