25
 energy: 58.809900472974 xtb: 6.6.1 (8d0f1dd)
C            3.43578705590415        0.96826400988626        0.18286848736229
N            2.41772848751402       -0.03494938622925       -0.00321010574188
C            2.71605872544360       -1.32306823491121       -0.11727769723033
N            1.57446239278792       -2.05498657729325       -0.16098700470122
C            0.52129952441674       -1.17849272727260       -0.06099492046056
C            1.05360894058781        0.09555797041688        0.03411712613808
C            0.13796410058909        1.26979234468813        0.18557982544579
O            0.60776503929401        2.38003522664972        0.40280903869707
N           -1.17961954102158        0.98714077082921        0.12424239080984
C           -3.09320360240413        2.94785782591604       -0.37710435034323
C           -1.72009764422387       -0.20236383200512        0.17826513871372
O           -2.86118062074593       -0.53301676887845        0.38565552780048
N           -0.77930789502561       -1.39959575102159        0.00263852345380
C           -1.25661817987026       -2.74838899602343        0.02832387545322
H            3.96409577008101        0.74602088702710        1.11985624827285
H            4.14969895080409        0.89881825235297       -0.63894459235452
H            3.01000125872531        1.96119770422334        0.23066436397163
H            3.68818839875158       -1.69536670131826       -0.31528412546408
H           -2.39268518398083        3.73125777201974       -0.37094715934306
H           -3.51192533043347        2.65395092271254       -1.30188642417520
H           -3.62995482501938        2.73112127900069        0.49933083310367
H           -0.80572605854936       -3.26749475436865        0.87856184903419
H           -0.94465362597435       -3.23281602563835       -0.89646006397224
H           -2.34638324562960       -2.76726144912264        0.08530734052544
H            1.55041145622635       -3.05519844222358       -0.24151092903491
