  25
        -42.15543808
 C          3.3928800493        0.8646882755        0.1483041001
 N          2.4081914107       -0.1781960625        0.0661113417
 C          2.6055679782       -1.4805931303       -0.0070871019
 N          1.4198361383       -2.1311782949       -0.0523531716
 C          0.4326041085       -1.1935221993       -0.0023047186
 C          1.0523956509        0.0527496215        0.0714764286
 C          0.3315873096        1.2763539367        0.0872742591
 O         -1.1987338084        3.3615280077       -0.3960313054
 N         -0.9836541721        1.0607407413        0.0736264680
 C         -1.8528542647        2.2700453955        0.0949971943
 C         -1.6870898904       -0.1491515840        0.0441468681
 O         -2.8821777550       -0.2146954992        0.0583761867
 N         -0.8992311208       -1.3212137585       -0.0181955821
 C         -1.5592394157       -2.6094107811       -0.1069841919
 H          3.7349484867        0.9827066608        1.1780140038
 H          4.2488596577        0.6353849328       -0.4838406151
 H          2.9271052609        1.7953463680       -0.1720501846
 H          3.5616960928       -1.9677186477       -0.0279611696
 H         -2.1895552359        2.3985495579        1.1418205549
 H         -0.2609014533        3.2996005942       -0.1432208704
 H         -2.7322087906        2.0676281561       -0.5247082561
 H         -1.3212604467       -3.2198734004        0.7642750518
 H         -1.2639851115       -3.1247692938       -1.0211026519
 H         -2.6328763255       -2.4263810994       -0.1304596403
 H          1.3131678498       -3.1349487661       -0.1127274045
