72
 energy: -99.679961120932 xtb: 6.6.1 (8d0f1dd)
N           -1.62301768938582        2.94721573523730        2.27537204346080
C           -1.58462274550846        2.21786221986293        1.25016376778458
C           -2.72773686755989        2.08283640897407        0.27487801082401
C           -3.29955815687453        0.66252821300331        0.35881394583798
C           -4.28177444676551        0.21639159989587       -0.52782615751316
C           -4.87518132135318       -1.04437201965438       -0.43546155999641
O           -5.83547122207485       -1.45008798198443       -1.32247015026068
C           -6.35440028493890       -0.54035953747368       -2.26801386989569
C           -4.49780604067090       -1.95749935157554        0.60956442927373
O           -5.21233316082220       -3.14895715426814        0.79679115055376
C           -4.78883242980483       -4.35972645364405        1.52306646880261
C           -3.47245904086757       -1.50973764761584        1.43005118608293
C           -2.89863309672582       -0.24298203832124        1.32622438246271
C           -2.13537642494609        2.35305118552936       -1.13681772161473
C           -1.26500063298600        1.22350411266189       -1.71932210173937
C            0.06033266731229        1.13338230982425       -1.06449994826739
N            0.64674966850264       -0.04015220326123       -0.62740012913272
C            2.02558718007410       -0.04370680859773       -0.24651493254304
C            2.98582593998626       -0.55874500483099       -1.34695935507138
C            4.40571918166392       -0.45051410404304       -0.88232351018857
C            5.12553300181608        0.71536997199269       -1.07148554130297
C            6.42892935446719        0.83158391787088       -0.61006555929442
C            7.03380007762472       -0.21922486305455        0.05602006658506
O            8.30829951824252       -0.22317615543623        0.54328454359127
C            9.10514260958420        0.91551426058901        0.34643194259121
C            6.30487645608474       -1.41159748494351        0.26654287836540
O            6.98293587762991       -2.39096734804357        0.93026568104887
C            6.34426041867571       -3.61945772964383        1.16028575229830
C            5.00727011192099       -1.50862771703903       -0.19881016039669
C           -0.03291190491314       -1.30017625523171       -0.73859885589086
C           -3.87320428841200        3.10660300179834        0.53931785222468
C           -4.57377042960595        2.83621103326215        1.86909458016283
C           -3.41042978468490        4.56491426064924        0.50041628921686
H           -4.59859590495373        0.90030561090372       -1.30435067567463
H           -6.79133582450215        0.34640796900483       -1.79524544449884
H           -7.14251322522068       -1.08475854212105       -2.78804863807566
H           -5.60767138255201       -0.21981707566928       -3.00511218562979
H           -5.24871585159316       -4.92069675262488        2.51246147906624
H           -4.99701438030764       -5.12677587492035        0.78124089346679
H           -3.74401036275497       -4.24545953307715        1.78660027172406
H           -3.12137884073345       -2.15734958552930        2.21797081066184
H           -2.15392921312452        0.04667267223340        2.05222690637132
H           -2.95687797472729        2.54823083470942       -1.82917001668476
H           -1.52613428732072        3.25858668886445       -1.09228196628659
H           -1.80699498983890        0.28137800018132       -1.65367353534525
H           -1.13563167680197        1.45411773181347       -2.78983996227200
H           -0.69390828030352        1.65899092952575        0.92371312821296
H            0.69685712979041        2.00009583264345       -1.07341346354614
H            2.14353971807632       -0.67026255159689        0.64589446432095
H            2.31777001772221        0.97559608456784        0.01623720480138
H            2.83438443478964        0.04398441153202       -2.24375680146524
H            2.73724624600537       -1.59526586844635       -1.57947303195669
H            4.67490406034898        1.54659929543356       -1.59327278135171
H            6.96513937026082        1.75120362012141       -0.78296571755856
H            8.68420975055744        1.79729916861885        0.84187066429024
H            9.24836592250736        1.13221546101596       -0.71785119594983
H           10.06760269144985        0.67648868016494        0.79654462250546
H            7.07849574698612       -4.23513000300886        1.67822984364371
H            5.45844737255866       -3.50515088127117        1.79504602678567
H            6.05832106175772       -4.11074277937694        0.22373345623412
H            4.44250319863104       -2.41594239593460       -0.04726381093920
H           -0.18784230113449       -1.60707083303813       -1.78005751612771
H           -1.00784549056254       -1.24494679033389       -0.24515878152426
H            0.56126342701134       -2.06337923459852       -0.23955384111017
H           -4.60743946531681        2.97224135318446       -0.26437435781282
H           -3.87524923612049        2.98314025656120        2.68612091549568
H           -4.95442234246560        1.81854445509722        1.90737967590795
H           -5.40883014097301        3.52260259914644        1.99170029042154
H           -2.66097046204934        4.74148549883526        1.26558310016508
H           -3.00063076032421        4.83730476452071       -0.46890141915747
H           -4.26030985604481        5.21573428872066        0.69749069543472
H           -0.77399518493347        2.96090392020320        2.83831627101685
