  25
        -42.14500968
 C          4.1729145255        0.6831061520       -0.0567561002
 N          3.0852227568       -0.2519183955       -0.0404128848
 C          3.1545301038       -1.5674384366       -0.0896356904
 N          1.9351535471       -2.1144698497       -0.0461579875
 C          0.9456714660       -1.1087254191        0.0411213631
 C          1.7330059129        0.1277243273        0.0425889837
 C          1.2725669118        1.3699458462        0.1088892181
 O          0.8035368029        2.4249910681        0.1678940040
 N         -3.5095979652        1.4844974153       -0.0852339750
 C         -3.7271130601        2.8709099904       -0.1054179945
 C         -3.8986536344        0.3644788392       -0.0719542194
 O         -4.0671522141       -0.7818866969       -0.0575427921
 N         -0.3048895770       -1.2039521612        0.1026370503
 C         -1.0525658619       -2.4188347879        0.1011035220
 H          4.2194047725        1.2259277159        0.8898781537
 H          5.1107847756        0.1529298014       -0.2097947940
 H          4.0343089669        1.4058122008       -0.8629128310
 H          4.0710705667       -2.1244405596       -0.1566648350
 H         -2.7529486357        3.3603003613       -0.0902236189
 H         -4.2630574327        3.1653975824       -1.0104858683
 H         -4.3003121082        3.1850960033        0.7702338793
 H         -0.8171921977       -3.0358606980        0.9728379721
 H         -0.8737969368       -3.0047417689       -0.8046494131
 H         -2.1075019014       -2.1499317529        0.1392448950
 H          1.7401781849       -3.1035139654       -0.0697182874
