25
 energy: -42.164412631946 gnorm: 0.004404142512 xtb: 6.6.1 (8d0f1dd)
C            3.25736503176834        1.05768637387660        0.01739308053349
N            2.31337000268918       -0.02417502832674       -0.01637321597477
C            2.57935516440199       -1.32582642999229        0.01235543755860
N            1.42294193760029       -2.03586064580584       -0.00612474097984
C            0.39272701904986       -1.15125330420611       -0.04603714798063
C            0.94594395894742        0.13383701872904       -0.05144845460567
C            0.14647507557468        1.28801981578958       -0.07453582969534
O           -1.72661775718523        3.02173834638253        1.00619547784206
N           -1.16397999579897        1.02183476483972       -0.09715125303441
C           -2.07364654981750        2.19285165215803       -0.02999189303399
C           -1.78840123175655       -0.23206654519808       -0.13014606972553
O           -2.97666358901187       -0.36972590380272       -0.20015637463289
N           -0.93238953762884       -1.35244716180888       -0.08573638839980
C           -1.51395098967917       -2.68064755098703       -0.08232546783653
H            3.67309863888980        1.16962985536208        1.02015486394557
H            4.07144110423984        0.87618840657504       -0.68282935307064
H            2.73444555815361        1.97334983417169       -0.25137644159021
H            3.55824747722989       -1.76064838480458        0.04344730839808
H           -2.04392592602207        2.68863256335345       -1.00705086533883
H           -3.08137605967332        1.81568065153108        0.16582129572947
H           -0.97298231402927        3.57609355290835        0.76436987444189
H           -1.22628200970938       -3.21829128672657        0.82144717805008
H           -1.20005845223292       -3.23601840522320       -0.96663575283536
H           -2.59697439795676       -2.56591115882490       -0.10058838465106
H            1.36226935605705       -3.04443248836967        0.00849473478450
