72
 energy: -99.561744067399 xtb: 6.6.1 (8d0f1dd)
N           -1.91404827052317        2.63690194849794        2.92713986526732
C           -1.72212135415147        2.00141911142502        1.88954066788129
C           -2.58877365238715        1.84397819331447        0.79411991592120
C           -3.33020371633941        0.60755002623780        0.75702473934744
C           -4.08808082790571        0.21389627845182       -0.35222979976660
C           -4.79333499863842       -0.96579697862257       -0.37516850091220
O           -5.59597408386348       -1.36546377774771       -1.40912066701451
C           -5.87694315633529       -0.46611113924924       -2.45025318565528
C           -4.67591549354509       -1.87493927736237        0.68681281566588
O           -5.40155851690613       -3.03258307034428        0.58051285778601
C           -5.29860131340863       -3.96678752898163        1.62125156957098
C           -3.84578615154396       -1.52082750734349        1.73559687215132
C           -3.23009869250318       -0.29002001659561        1.78932804970268
C           -2.00038279755709        2.38187053375230       -0.50693538407959
C           -1.02557185963669        1.35340163430932       -1.15269413852463
C            0.29500227553825        1.15215720882050       -0.36305214089862
N            1.05599828218505        0.04117861977989       -0.76027411416143
C            2.44150408381637       -0.03140306941028       -0.38746933592345
C            3.29062596098461       -0.52365164533880       -1.55903616368496
C            4.71570724103624       -0.47622487672639       -1.10514390768662
C            5.49790705454069        0.64318531538741       -1.32010565066326
C            6.81006331763241        0.71061968234315       -0.85159216113743
C            7.36181445778657       -0.34390438925231       -0.14200864950378
O            8.63570397590284       -0.38208284733043        0.36580729925053
C            9.47293902877678        0.72487949739690        0.13989175202868
C            6.55967488785191       -1.48399684109930        0.10318140166756
O            7.17442859287278       -2.47828229726229        0.81151387094107
C            6.43678976241599       -3.64069849133968        1.07799481770816
C            5.25218250862833       -1.53124454259869       -0.36813400780820
C            0.42708326261684       -1.27560565592180       -0.70449672075559
C           -5.18753857046351        3.16800618278820        0.15901771840947
C           -5.52440463055516        2.63471460922705        1.51202557347219
C           -4.53099233635605        4.50583940380563        0.07294927174877
H           -4.16473381300085        0.88066586601779       -1.19855487949376
H           -6.28652146251768        0.47690010309313       -2.07021765115114
H           -6.62340067800480       -0.93671443637112       -3.09691663125859
H           -4.97706080237982       -0.26367215591911       -3.03205076130565
H           -5.62132271740688       -3.53866606068374        2.57618845423972
H           -5.96820003219135       -4.78428598023352        1.35012166712849
H           -4.27918740057122       -4.34821813800123        1.73403633067215
H           -3.67554042039460       -2.19360647803632        2.55560863371770
H           -2.60855864094338       -0.01881018110858        2.61956444768754
H           -2.71225430925857        2.71542840008918       -1.24133579940940
H           -1.42594621545542        3.29034465762670       -0.35989112112583
H           -1.51546321314129        0.38520901831775       -1.27563127751526
H           -0.89334523224474        1.74851974958012       -2.16727146209174
H           -0.38262868402230        1.35195348902894        1.24143040611910
H            0.94209874669869        2.03982462239566       -0.47010754737245
H            2.65996066730521       -0.69285674435234        0.46987145843684
H            2.74134578787712        0.97579115736967       -0.12130713110495
H            3.12313006258090        0.12904509882265       -2.41724141258360
H            2.99312622075944       -1.54062034017865       -1.82843605214213
H            5.09097967187757        1.47370664801242       -1.87820852542849
H            7.41042226885100        1.59027312073809       -1.04923003994363
H            9.06454629842438        1.63643932056955        0.58538436174599
H            9.64605252442211        0.89186898589876       -0.92987962365752
H           10.42531453623477        0.49629602931522        0.61872786129123
H            7.11185982453447       -4.29493618962372        1.62949056210057
H            5.54764817692209       -3.41806508715007        1.68496625687716
H            6.12938194907836       -4.14408611416414        0.15361491106447
H            4.62953863161956       -2.39674670499479       -0.19573282507722
H           -0.27868676593366       -1.33695653513853       -1.52441418137624
H           -0.10928696577768       -1.48047016441182        0.22225431103179
H            1.17677605365333       -2.06577468105675       -0.76495649084175
H           -5.93643499985514        2.93351243517936       -0.64851118152483
H           -4.89117429789183        2.82536277192424        2.37335201526968
H           -5.72004551115840        1.56920779822507        1.45977206247007
H           -6.46479317551629        3.14968970184598        1.68484905264798
H           -3.73005206891928        4.81522083417702        0.75311817365036
H           -4.14940446561864        4.69074264972561       -0.92440809597646
H           -5.38822417974195        5.15255359190368        0.26691157069961
H           -1.29735169363996        2.79764682945930        3.70290544429939
