25
 energy: -42.168832858824 gnorm: 0.004544106836 xtb: 6.6.1 (8d0f1dd)
C            3.23287858238028        0.97720478443346        0.36084788150001
N            2.18381031295972       -0.00598444461963        0.29562626559734
C            2.30825641639301       -1.31896714732381        0.40977228508089
N            1.11007375435618       -1.91034916814861        0.26712208760297
C            0.18328925688743       -0.93185086892528        0.05277971705801
C            0.85844667490530        0.27614491371907        0.07152643941131
C            0.15526704407528        1.52974788579092       -0.13524864891301
O            0.63490929761277        2.63625162276112       -0.11695905492537
N           -1.21312329343259        1.28631068027382       -0.36917505420944
C           -1.99211649014410        2.48639802670503       -0.63055631508071
C           -1.87204661342996        0.12517455767201       -0.37491971651989
O           -1.21265327875659       -3.23832410767079        0.56639146440899
N           -1.14950894985287       -1.00400182472893       -0.14516187496571
C           -1.82624939842443       -2.29911586581578       -0.25575590249203
H            3.91420623519271        0.75055506311672        1.17909412734629
H            3.79484061615097        0.98965268869227       -0.57455138206127
H            2.78476508386729        1.95968708717021        0.50763517283530
H            3.22769448124225       -1.84085934883746        0.59218942660301
H           -1.47319490556023        3.09647798591809       -1.36955267686069
H           -2.97235878051459        2.19458527099671       -0.99359820160785
H           -2.09063408590186        3.07188952701598        0.28361193955814
H           -1.73712440953447       -2.64728033582512       -1.29410511661271
H           -2.88210157338033       -2.12964597403505       -0.02729692725760
H           -1.68350820402409       -3.33843995005752        1.40252936591815
H            0.87661374103359       -2.89702251667758        0.32892631648625
