25
 energy: 0.000000000000 xtb: 6.6.1 (8d0f1dd)
C            3.23720163006194        1.16630919979326        0.08434469647475
N            2.29877817382611        0.07527477071623        0.03981603040599
C            2.58028210190900       -1.21425402444508        0.03006176031096
N            1.43813958087363       -1.93419271955128        0.00098261760884
C            0.39035688448383       -1.05887472636071       -0.00790371836672
C            0.93510056364412        0.21347819449412        0.01709077491437
C            0.09450143893243        1.40504303904423       -0.00410947031874
O            0.49712751527797        2.54126714362870       -0.00342325688240
N           -1.25076640035757        1.06271879480407       -0.03085478223738
C           -2.21907211982101        2.15522099834493       -0.05001256985998
C           -1.81739487048744       -0.20012725993278       -0.04692818574614
O           -2.99983886758376       -0.37846417018721       -0.07008878229737
N           -0.92618586207120       -1.30210215599479       -0.03682761578324
C           -1.46982264913417       -2.64643102187190       -0.06029820460571
H            3.71247264356769        1.21471455160235        1.06488849150277
H            4.00791497605742        1.03430808813993       -0.67357694370751
H            2.69910007168542        2.09770118228144       -0.09130154882931
H            3.56654120610678       -1.63682992603973        0.04233140067262
H           -1.67107961066214        3.09322851271934       -0.02552706933167
H           -2.82428953597071        2.09428624779827       -0.95318082946668
H           -2.87644029173232        2.07745725625962        0.81450067533302
H           -1.17061996399332       -3.19584890659852        0.83242232437030
H           -1.14560257411436       -3.17511610292205       -0.95688275822323
H           -2.55549792440841       -2.55659984320617       -0.07459039797972
H            1.38130855184625       -2.94313852034425       -0.01389874181052
25
 energy: -1.974346246027 xtb: 6.6.1 (8d0f1dd)
C            3.23508978840319        1.17070047170398        0.08576015365291
N            2.31627898728679        0.08170877585630        0.03756817238558
C            2.65620958634441       -1.24205714646372        0.03125564369981
N            1.45691247718022       -1.94572081964633        0.00150330969970
C            0.40453294933153       -1.06714544034543       -0.00836484978562
C            0.93290330954127        0.21077790375251        0.01505573533829
C            0.09471052117254        1.38813520425511       -0.00485285446790
O            0.48885146622102        2.55463345661739       -0.00347124066780
N           -1.27058616719821        1.05275541065958       -0.03118036753573
C           -2.23202816803340        2.15345581829337       -0.04978920412901
C           -1.83189580725739       -0.19841142282382       -0.04781573686342
O           -3.02979379189961       -0.37780098272501       -0.07121527981743
N           -0.93774852596894       -1.30124128406893       -0.03738093438512
C           -1.49843470426516       -2.63512424142779       -0.06076419389980
H            3.70877816581721        1.21052940526502        1.06918610366198
H            4.00010143713436        1.02822681459283       -0.67747326387917
H            2.68470891173859        2.09258878665622       -0.09135950605271
H            3.73232743575711       -1.62557954870429        0.04715251881342
H           -1.67413583129056        3.08735888541652       -0.02521275306548
H           -2.84114082480060        2.10512428891224       -0.95267420605888
H           -2.89325017820527        2.08821236522516        0.81439250282124
H           -1.20318838577029       -3.18910906070288        0.83166114040010
H           -1.17796575820836       -3.16871741888712       -0.95702913264822
H           -2.58464696131438       -2.53622931390201       -0.07518976294915
H            1.37562473622015       -2.94804230533688       -0.01272809812029
25
 energy: 7.349088453574 xtb: 6.6.1 (8d0f1dd)
C            3.22977862221317        1.16866635067232        0.08645871686182
N            2.32547278410776        0.07743357074194        0.03315544908527
C            2.72947981725273       -1.26684584445934        0.03294652001438
N            1.48179963525447       -1.95494140081586        0.00281821111118
C            0.42163400975303       -1.08141751040394       -0.00876573176819
C            0.93009402233221        0.20238434300072        0.01251038284519
C            0.09566629678726        1.36557833122447       -0.00547412738425
O            0.46985596789717        2.54697865883339       -0.00352628994989
N           -1.28931870240431        1.04608256759227       -0.03147342789812
C           -2.24381518920381        2.15467340938756       -0.04943376568219
C           -1.83603462005221       -0.19707180456542       -0.04854913895003
O           -3.03885833398677       -0.38103968584936       -0.07249754719612
N           -0.94164934062927       -1.30085011372164       -0.03782038338567
C           -1.53163078598023       -2.62189549532180       -0.06136673011514
H            3.70519015184925        1.20827736096230        1.07041202759764
H            3.99344648049013        1.02686836288663       -0.67936760135979
H            2.67309648706450        2.08588377679903       -0.08995643383499
H            3.90302279468239       -1.58363413608415        0.05266854015137
H           -1.67854173284478        3.08508345740755       -0.02470400435586
H           -2.85772684088122        2.11621627745665       -0.95101330621874
H           -2.90952247536405        2.09905834756271        0.81346122565691
H           -1.25085225305486       -3.18452644323683        0.83102774882662
H           -1.22519213924109       -3.16449668124316       -0.95787314843319
H           -2.61786887659235       -2.50332444885185       -0.07592804592482
H            1.37468888848705       -2.95411264780219       -0.01067524354614
25
 energy: 14.108027470235 xtb: 6.6.1 (8d0f1dd)
C            3.22792037173094        1.16792320512004        0.08632984523499
N            2.32861407665582        0.07208685706114        0.03001405813075
C            2.75858313223745       -1.27570081598064        0.03391814998406
N            1.49435925233609       -1.95884071591498        0.00411293493047
C            0.42967999689470       -1.09103502381714       -0.00860455601913
C            0.93091257746803        0.19709817862253        0.01142587041767
C            0.09790688358002        1.35866146985816       -0.00559065445832
O            0.46053715081360        2.54109296205307       -0.00339929523158
N           -1.29518080965948        1.04633771599589       -0.03164382604078
C           -2.24903801244558        2.15496760239657       -0.04930030649456
C           -1.83462240362776       -0.19774723402435       -0.04893985331389
O           -3.03704586243548       -0.38558149789360       -0.07345867293277
N           -0.93978895899616       -1.30269441426185       -0.03779350775553
C           -1.54936020231521       -2.61653897840192       -0.06162838380026
H            3.70299380066277        1.20932340677025        1.07058142289485
H            3.99225826559326        1.03166799343677       -0.67988383424715
H            2.66882429880837        2.08433096476900       -0.08878791799184
H            3.98361559829214       -1.56178125182068        0.05432692016470
H           -1.68348947681532        3.08470217752649       -0.02445563895761
H           -2.86443653053873        2.11764583113990       -0.95021336874502
H           -2.91597256760672        2.10022687696680        0.81302718589385
H           -1.28078267930979       -3.18400688179656        0.83114350992810
H           -1.25460314905642       -3.16408110782686       -0.95873790520794
H           -2.63469904235020       -2.48107247180517       -0.07635433933680
H            1.37502895801991       -2.95795624600085       -0.00905394089895
25
 energy: 16.394265981173 xtb: 6.6.1 (8d0f1dd)
C            3.22744025271163        1.16730818937005        0.08625224997346
N            2.32851077937219        0.06969812176254        0.02855557113290
C            2.76138953619402       -1.27675504050401        0.03449220624520
N            1.49503012127908       -1.95877955226731        0.00454720801144
C            0.42973410600341       -1.09304658529886       -0.00847605768803
C            0.93132592811112        0.19628329977054        0.01115330608186
C            0.09938652923715        1.35985709934754       -0.00567530254673
O            0.45827190741218        2.54062328282193       -0.00319888526087
N           -1.29548115972355        1.04803539216210       -0.03171066347088
C           -2.25014704120193        2.15504654138635       -0.04930181492582
C           -1.83444434308213       -0.19746578396693       -0.04900088223826
O           -3.03624878747651       -0.38545342171625       -0.07371748350134
N           -0.93918774202291       -1.30327973205296       -0.03764225191320
C           -1.55229465047855       -2.61627333682264       -0.06160385742946
H            3.70148319572396        1.20885844361738        1.07079091865584
H            3.99189909351934        1.03292887554467       -0.67987422238407
H            2.66808263304066        2.08394517969869       -0.08857756930847
H            4.00716159717130       -1.55988380332903        0.05433996085074
H           -1.68583732862034        3.08519320113662       -0.02446097731564
H           -2.86556707898611        2.11673438874821       -0.95015682961233
H           -2.91699479623794        2.09925504444375        0.81304814124497
H           -1.28611866832089       -3.18391424829184        0.83110468231193
H           -1.25978709312112       -3.16395350683658       -0.95871159283030
H           -2.63699401115799       -2.47792981584010       -0.07639362055738
H            1.37160168859016       -2.95800363071186       -0.00874833737826
25
 energy: 18.540149184316 xtb: 6.6.1 (8d0f1dd)
C            3.22699494559896        1.16656823088468        0.08620461454591
N            2.32764457936101        0.06793266262357        0.02700640298451
C            2.75817882252488       -1.27581170020173        0.03558481405711
N            1.49304561818870       -1.95766548105721        0.00482974864486
C            0.42767445989400       -1.09310400010411       -0.00845144244060
C            0.93135240152100        0.19663253829886        0.01098266533537
C            0.10070729116317        1.36269664568611       -0.00583427303397
O            0.45654092766296        2.54189815424611       -0.00292405521371
N           -1.29504914415706        1.04937628690707       -0.03178327726008
C           -2.25053685507994        2.15491224495284       -0.04931320741367
C           -1.83516904427283       -0.19707250609122       -0.04900146804056
O           -3.03631556467624       -0.38450885290549       -0.07377910405404
N           -0.93905776602258       -1.30339820860672       -0.03747457031298
C           -1.55243313896234       -2.61687486206430       -0.06153447722484
H            3.69976396583971        1.20755222808976        1.07104247292979
H            3.99142859571967        1.03263585547809       -0.67961444868534
H            2.66785348564148        2.08353362577647       -0.08873476686568
H            4.02685431091131       -1.56374929481419        0.05400344351606
H           -1.68757676339341        3.08573139719606       -0.02448004356411
H           -2.86599745923383        2.11601067465040       -0.95014653022154
H           -2.91731687807273        2.09849045642905        0.81310066748415
H           -1.28634133060502       -3.18373641689510        0.83111745308094
H           -1.25996848387417       -3.16368630201310       -0.95863759589959
H           -2.63672958064839       -2.47845956291497       -0.07634748927893
H            1.36666727290791       -2.95687521137896       -0.00878163692179
25
 energy: 19.679848137945 xtb: 6.6.1 (8d0f1dd)
C            3.22678606520268        1.16641388154880        0.08620089768850
N            2.32701222419705        0.06801144455998        0.02630690007719
C            2.75345114906055       -1.27414418827174        0.03684518195195
N            1.49115347882909       -1.95686388666415        0.00480961721844
C            0.42576109715417       -1.09185746671456       -0.00860728723456
C            0.93083177001969        0.19750181607896        0.01095698797026
C            0.10079361801977        1.36406655443424       -0.00595465795040
O            0.45609204280677        2.54337718232089       -0.00282979350843
N           -1.29500987703901        1.04916123782413       -0.03182520958863
C           -2.25042326147591        2.15481492268410       -0.04931341403719
C           -1.83631187205306       -0.19685856128763       -0.04897114621055
O           -3.03726684142481       -0.38403164424485       -0.07364495963427
N           -0.93957833389491       -1.30308000242245       -0.03744508973917
C           -1.55144361580943       -2.61732754691556       -0.06150885837904
H            3.69909654740139        1.20680812299675        1.07113889685894
H            3.99128637450354        1.03166389377133       -0.67930676010792
H            2.66792275216844        2.08341939662136       -0.08902391278943
H            4.03606531422248       -1.56940720752054        0.05347164348343
H           -1.68761776244187        3.08586148604877       -0.02446531859504
H           -2.86593434507710        2.11625065590434       -0.95016199930258
H           -2.91722754302189        2.09871057643993        0.81313963043555
H           -1.28417213538920       -3.18370118558961        0.83115732059956
H           -1.25786848611772       -3.16359328806742       -0.95864805165575
H           -2.63587524835961       -2.48021396318428       -0.07629236202437
H            1.36469155645510       -2.95595362817875       -0.00899435937922
25
 energy: 20.225301802125 xtb: 6.6.1 (8d0f1dd)
C            3.22673686774272        1.16664586193742        0.08621745204988
N            2.32689042350722        0.06882996144533        0.02625010472060
C            2.75046590496362       -1.27303988487415        0.03814895480763
N            1.49045456843078       -1.95674450018646        0.00459445404858
C            0.42491568454181       -1.09085757550778       -0.00888285924070
C            0.93019633758835        0.19808627735159        0.01091240030717
C            0.10019350850383        1.36392829550242       -0.00605011234406
O            0.45641981782617        2.54394081594379       -0.00292663500626
N           -1.29547672006238        1.04854374744259       -0.03185021169244
C           -2.25042248070211        2.15496582022426       -0.04929249403679
C           -1.83717402630420       -0.19665719280121       -0.04895292362555
O           -3.03820237006088       -0.38400744844711       -0.07347352295673
N           -0.94031858155092       -1.30279121266779       -0.03753326915480
C           -1.55096849484207       -2.61737189603192       -0.06152446152221
H            3.69914975565006        1.20682931086924        1.07114838314642
H            3.99137655563200        1.03115055516281       -0.67913193266082
H            2.66791899071930        2.08351502197704       -0.08919290792000
H            4.04018160925588       -1.57347440566640        0.05289375800926
H           -1.68708769401773        3.08582659790827       -0.02442731465976
H           -2.86591134772773        2.11683264523534       -0.95016922359411
H           -2.91720650391880        2.09927481360019        0.81319065791443
H           -1.28282576109653       -3.18371638463545        0.83116270176499
H           -1.25661724978540       -3.16362748334725       -0.95867309785394
H           -2.63564238990703       -2.48128458264933       -0.07625828779033
H            1.36516826355028       -2.95576855561342       -0.00914571656318
25
 energy: 20.365620503661 xtb: 6.6.1 (8d0f1dd)
C            3.22676602752403        1.16684996049745        0.08623445529494
N            2.32701793193566        0.06936855521838        0.02648880402202
C            2.74972527928203       -1.27281771465119        0.03912726106695
N            1.49056339605034       -1.95694044270117        0.00434089187027
C            0.42494023981901       -1.09063494889975       -0.00913797083830
C            0.92984019700259        0.19818135711885        0.01081041854794
C            0.09963279835992        1.36339121334191       -0.00611009485962
O            0.45685438469338        2.54374684357385       -0.00305859061451
N           -1.29589713740275        1.04834198018466       -0.03185821100133
C           -2.25056905735187        2.15521079045707       -0.04926584657717
C           -1.83741750988604       -0.19649251838382       -0.04895460945525
O           -3.03854363474736       -0.38411301381499       -0.07337333435034
N           -0.94078072428691       -1.30272085077551       -0.03765182502611
C           -1.55103526273198       -2.61724637416560       -0.06155125759432
H            3.69941026488171        1.20712718882716        1.07112789389830
H            3.99146867354989        1.03115738429079       -0.67913429616169
H            2.66786384513721        2.08361896071404       -0.08920886256621
H            4.04128090361490       -1.57474694794208        0.05244818603446
H           -1.68679135347474        3.08581525740673       -0.02439888068498
H           -2.86599787441075        2.11717514990665       -0.95015309008028
H           -2.91728804922954        2.09960550992094        0.81323208789319
H           -1.28269066941975       -3.18369400595867        0.83114404234914
H           -1.25654233213654       -3.16367413690277       -0.95867321541034
H           -2.63581001908944       -2.48148161112085       -0.07624806608371
H            1.36621435025323       -2.95599898397005       -0.00914199352576
