25
 energy: 0.000000000000 xtb: 6.6.1 (8d0f1dd)
C            3.23720132972391        1.16630909158653        0.08434468864950
N            2.29877796055224        0.07527476373246        0.03981602671198
C            2.58028186251803       -1.21425391179017        0.03006175752192
N            1.43813944744728       -1.93419254010258        0.00098261751768
C            0.39035684826767       -1.05887462812143       -0.00790371763344
C            0.93510047688824        0.21347817468824        0.01709077332874
C            0.09450143016486        1.40504290868848       -0.00410946993748
O            0.49712746915594        2.54126690785742       -0.00342325656480
N           -1.25076628431515        1.06271869620815       -0.03085477937476
C           -2.21907191394203        2.15522079838987       -0.05001256521996
C           -1.81739470187490       -0.20012724136556       -0.04692818139228
O           -2.99983858926755       -0.37846413507442       -0.07008877579474
N           -0.92618577614240       -1.30210203518959       -0.03682761236648
C           -1.46982251276835       -2.64643077634382       -0.06029819901142
H            3.71247229913541        1.21471443890471        1.06488839270555
H            4.00791460421487        1.03430799217987       -0.67357688121503
H            2.69909982127087        2.09770098766290       -0.09130154035862
H            3.56654087521359       -1.63682977417947        0.04233139674524
H           -1.67107945562430        3.09322822573871       -0.02552706696334
H           -2.82428927394145        2.09428605349656       -0.95318074103337
H           -2.87644002486466        2.07745706351925        0.81450059976605
H           -1.17061985538665       -3.19584861009707        0.83242224714061
H           -1.14560246782873       -3.17511580834413       -0.95688266944647
H           -2.55549768731684       -2.55659960601237       -0.07459039105944
H            1.38130842369251       -2.94313824728853       -0.01389874052104
25
 energy: -0.908478442479 xtb: 6.6.1 (8d0f1dd)
C            3.23361716019789        1.16937336031181        0.08560107173083
N            2.31645169307032        0.07974562598806        0.03759196268466
C            2.66261878700045       -1.24368694089875        0.03138026082044
N            1.45905736768716       -1.94606251778114        0.00155725771937
C            0.40440032456078       -1.06785795287531       -0.00833897488169
C            0.93243570674610        0.20971846762730        0.01511090727645
C            0.09348150925613        1.38774639755820       -0.00476629959616
O            0.48746131907776        2.55419134522643       -0.00334312299504
N           -1.27203538988984        1.05348629907995       -0.03118364402457
C           -2.23332485175837        2.15471531486456       -0.04980881588539
C           -1.83333732403952       -0.19766456671349       -0.04784564556267
O           -3.03132188434826       -0.37651328861719       -0.07128535287448
N           -0.93897236250438       -1.30094308184844       -0.03739701541869
C           -1.50075906908383       -2.63455441079044       -0.06081115936268
H            3.70695316927233        1.20851291967474        1.06904627694969
H            3.99842910824729        1.02592626370358       -0.67745015737896
H            2.68380381978656        2.09149995104857       -0.09166016992085
H            3.75403769867722       -1.62249107463295        0.04764401151096
H           -1.67586036330680        3.08895198847501       -0.02522725876494
H           -2.84260157043321        2.10646433234939       -0.95262194063312
H           -2.89471891507237        2.08953847510735        0.81427984151077
H           -1.20553158329081       -3.18854664995272        0.83157601475355
H           -1.18030121480742       -3.16815531248067       -0.95703651588597
H           -2.58711593811077       -2.53623645648369       -0.07525001582629
H            1.37534710803807       -2.94812969919615       -0.01272760375060
25
 energy: 12.115133072802 xtb: 6.6.1 (8d0f1dd)
C            3.22638757266842        1.16528216406287        0.08615018417191
N            2.32502850003534        0.07282679929335        0.03320789716074
C            2.74400970391805       -1.27158443409532        0.03322508777785
N            1.48543752538837       -1.95582215427568        0.00289919660335
C            0.42094313781676       -1.08268714587659       -0.00865870976451
C            0.92849983002897        0.20041806573759        0.01272149566754
C            0.09291773209496        1.36513493406560       -0.00520805292168
O            0.46638076952694        2.54659936278239       -0.00317718186721
N           -1.29281314320241        1.04820657849361       -0.03146641480828
C           -2.24698270333016        2.15777131079155       -0.04950782908366
C           -1.83953443678620       -0.19489017792606       -0.04858476988904
O           -3.04271016553717       -0.37768980793858       -0.07263403142279
N           -0.94474033411890       -1.29972836540033       -0.03783097801096
C           -1.53622304853985       -2.62067626042667       -0.06145790299312
H            3.70111070521220        1.20375067638522        1.07023538225095
H            3.98973510009435        1.02124687907309       -0.67929944867842
H            2.67145040207624        2.08326397552895       -0.09081548273941
H            3.95551981130389       -1.57724369959638        0.05370379158295
H           -1.68268502112814        3.08888411793131       -0.02477366400085
H           -2.86114134700391        2.11922659787254       -0.95101578833274
H           -2.91300268801298        2.10207291776749        0.81324241802567
H           -1.25472379409255       -3.18312447474226        0.83079107880188
H           -1.22906886267029       -3.16307404325876       -0.95781040708509
H           -2.62285830636605       -2.50476391878095       -0.07605119798699
H            1.37127736559657       -2.95437110872400       -0.01085076026356
25
 energy: 23.574048709643 xtb: 6.6.1 (8d0f1dd)
C            3.22352856384053        1.16331641727309        0.08597939150904
N            2.32828942639469        0.06565679802304        0.02991280237102
C            2.78136406112627       -1.28372314219428        0.03443181286084
N            1.49858810401948       -1.96041178889382        0.00424645509435
C            0.42864346812455       -1.09301029851777       -0.00843618365863
C            0.92849088872255        0.19458459806966        0.01171708134420
C            0.09420476404122        1.35762978981305       -0.00519848958508
O            0.45445478506573        2.54057745668281       -0.00285466287227
N           -1.30105240921766        1.04932740907592       -0.03164563439933
C           -2.25446452844842        2.15923876039715       -0.04940991632834
C           -1.84024949686578       -0.19454494977789       -0.04902364424785
O           -3.04329603651705       -0.38112656823681       -0.07368938756529
N           -0.94491336878522       -1.30076831089701       -0.03782619118168
C           -1.55711969215059       -2.61424061958739       -0.06178383349477
H            3.69743701261133        1.20356349924252        1.07063829993226
H            3.98735480334219        1.02412609390211       -0.67992504267388
H            2.66619301804693        2.08043815622231       -0.09015191084311
H            4.07233380844434       -1.55458619484961        0.05598487407082
H           -1.69002115912926        3.08971863544423       -0.02455878857454
H           -2.87042691560174        2.12218450027869       -0.95016485594543
H           -2.92207920894623        2.10479351581952        0.81263528645962
H           -1.28767399094615       -3.18152655188168        0.83080833016950
H           -1.26150325937702       -3.16156724458774       -0.95871262958047
H           -2.64303687528119       -2.48222981469864       -0.07655407027209
H            1.36716854245897       -2.95839135737748       -0.00938518039434
25
 energy: 30.297347877594 xtb: 6.6.1 (8d0f1dd)
C            3.22211560131419        1.16181275899035        0.08589325096819
N            2.32731365056801        0.06201357345045        0.02823241741330
C            2.78781453451350       -1.28691576877986        0.03541494016739
N            1.49737339281370       -1.96083254598588        0.00467982935723
C            0.42710034722062       -1.09539849028386       -0.00830420089071
C            0.92762825030263        0.19364677846743        0.01151011689308
C            0.09498724432892        1.35908362916574       -0.00526990695788
O            0.44979332207599        2.54010870758135       -0.00257981879730
N           -1.30329469530481        1.05201996053709       -0.03175427709588
C           -2.25709549211679        2.16038661559280       -0.04943935362662
C           -1.84218385135848       -0.19346941366845       -0.04911646122450
O           -3.04458225287703       -0.38008803220403       -0.07398177584125
N           -0.94649597960776       -1.30070852798327       -0.03772331493403
C           -1.56211225271107       -2.61354309381534       -0.06179919050120
H            3.69475493891045        1.20222697865191        1.07092185645557
H            3.98596454914649        1.02407964501202       -0.67987819044444
H            2.66486131112603        2.07942827234467       -0.09023444796780
H            4.13179899756371       -1.55392242079257        0.05648082857635
H           -1.69357842773552        3.09100550486381       -0.02459428774289
H           -2.87315287743457        2.12247076822497       -0.95012734726175
H           -2.92468642020149        2.10504902088328        0.81263225916792
H           -1.29457779820174       -3.18067040239668        0.83068286928438
H           -1.26829808885849       -3.16068954473693       -0.95866923992596
H           -2.64745008382783       -2.47959866460798       -0.07661950868710
H            1.35821638532382       -2.95846651976700       -0.00932313418949
25
 energy: 42.313035885286 xtb: 6.6.1 (8d0f1dd)
C            3.21950187204913        1.15929930799189        0.08580222257206
N            2.32245304341391        0.05834252476230        0.02634351575742
C            2.78173328740758       -1.28700444785817        0.03855935087348
N            1.48743401477628       -1.95986551685965        0.00491149271156
C            0.41889413605826       -1.09509745462183       -0.00839354313251
C            0.92422949504718        0.19456529008009        0.01162990902883
C            0.09503274372599        1.36483903945644       -0.00555836144933
O            0.44378275532356        2.54245021771470       -0.00218894240418
N           -1.30557783813294        1.05554804313625       -0.03197658351795
C           -2.25961675983615        2.16189580821609       -0.04951846084609
C           -1.84737669054993       -0.19178754885251       -0.04919022073538
O           -3.04848878307237       -0.37721174750537       -0.07401266274971
N           -0.95088022904562       -1.29964246004425       -0.03772938141006
C           -1.56501220519509       -2.61418199008486       -0.06179445362754
H            3.69041304429573        1.19874627811743        1.07108081592720
H            3.98307391703745        1.02066552008306       -0.67937007895999
H            2.66410835354714        2.07839332155009       -0.09101159051376
H            4.23288349884594       -1.56567182766350        0.05623951762576
H           -1.69725449435270        3.09287910002658       -0.02466743470273
H           -2.87559793770948        2.12336248990412       -0.95023432922206
H           -2.92696636565219        2.10590446528141        0.81273755557201
H           -1.29616398855070       -3.17931352808444        0.83061742534592
H           -1.26994932308796       -3.15931892691583       -0.95857781136349
H           -2.64986627615020       -2.48191878126020       -0.07659020296456
H            1.34142503477966       -2.95684838782585       -0.01007383562034
25
 energy: 55.582816705930 xtb: 6.6.1 (8d0f1dd)
C            3.21542013279940        1.15626715807056        0.08593196007336
N            2.31263227733961        0.05740138645926        0.02844370594151
C            2.75537165828839       -1.28157393409373        0.05471617685841
N            1.46822897737608       -1.95820749949654        0.00468324879419
C            0.40347997371256       -1.09081768756535       -0.00989338008303
C            0.91647966929932        0.19769363757552        0.01204251368420
C            0.09233170035637        1.37253635281725       -0.00738748827946
O            0.43820252861369        2.54765216704079       -0.00261599599272
N           -1.30893665530553        1.05779678862141       -0.03261704861615
C           -2.26188783922051        2.16383742376878       -0.04952694187158
C           -1.85642788141388       -0.18949775235354       -0.04946712160295
O           -3.05622393476187       -0.37294869731240       -0.07318085661247
N           -0.95924261402936       -1.29720029043148       -0.03912897214381
C           -1.56677422589366       -2.61539882117443       -0.06197502117687
H            3.68553830345137        1.19486029473706        1.07082739335635
H            3.97869480656894        1.01170057865827       -0.67806671804570
H            2.66400549919444        2.07738742046463       -0.09350285541398
H            4.38614782325379       -1.59302469997689        0.04730737134691
H           -1.69959101945287        3.09500594666853       -0.02473661336688
H           -2.87776007312527        2.12587311012219       -0.95029137085294
H           -2.92865558982748        2.10833073273381        0.81317416015302
H           -1.29306125718868       -3.17744707588079        0.83064742794530
H           -1.26748516631178       -3.15827507556791       -0.95846765179218
H           -2.65174027487858       -2.48823543002324       -0.07637586108988
H            1.32346748612798       -2.95468724511774       -0.01350614901816
25
 energy: 51.958371593176 xtb: 6.6.1 (8d0f1dd)
C            3.20424023033218        1.14538040258354        0.08536941350028
N            2.28334536931967        0.04579680207822        0.04196978361078
C            2.67971813148129       -1.26588057564966        0.13669920732919
N            1.42084133574220       -1.95091033368841       -0.00121538166834
C            0.36470703117592       -1.08500482327802       -0.02161555369296
C            0.89773028032735        0.20125638710016        0.00543069990988
C            0.08778713545536        1.38850733313421       -0.01749460829538
O            0.42682290192102        2.55083116230525       -0.00416255318047
N           -1.31510061614500        1.06486077195266       -0.03320582495594
C           -2.26600081167664        2.16810995007032       -0.04873551816923
C           -1.87446461811789       -0.18598352950521       -0.04924273581041
O           -3.06928231839114       -0.36427810604461       -0.06978688263907
N           -0.98069654668806       -1.29305370189286       -0.04504972373838
C           -1.57639064537731       -2.61761877131337       -0.06217657007264
H            3.67496558009112        1.18728675445010        1.06708321709790
H            3.96946831265065        0.99337444202015       -0.67445275754978
H            2.66344650874847        2.07336267633476       -0.09908422155210
H            4.77466906587355       -1.63524047185339        0.00212092881042
H           -1.70372080865164        3.09889317500412       -0.02469418802029
H           -2.88109590942406        2.12908038049892       -0.94971972078844
H           -2.93133336072294        2.11208352401361        0.81466399202625
H           -1.29535447996407       -3.17324719095806        0.83091827942041
H           -1.27154741079553       -3.15640460718709       -0.95783973736445
H           -2.65992898196269       -2.49384380284262       -0.07526702582391
H            1.28938892977061       -2.94832905858869       -0.02347860618874
25
 energy: 53.581719143317 xtb: 6.6.1 (8d0f1dd)
C            3.18988767022786        1.12828396388461        0.08705076633462
N            2.24152796463395        0.02663018030997        0.04838974168083
C            2.54791358751665       -1.23334624056817        0.16336185612643
N            1.35926587152786       -1.93246058344742       -0.00206809675662
C            0.31476326420165       -1.07012653215153       -0.03127565077842
C            0.87454948658283        0.20584224963908       -0.00464588610685
C            0.07468058045873        1.40461256060157       -0.01792648605447
O            0.41844962932328        2.54504878106806       -0.00352629341961
N           -1.31704783135827        1.07229630045335       -0.03224136869254
C           -2.26824083104432        2.17292495828398       -0.04928027505385
C           -1.89081189940182       -0.18515522087364       -0.04991905590465
O           -3.07959936472169       -0.35443762406446       -0.07014895050705
N           -1.00756976915781       -1.28527483229443       -0.04621883114081
C           -1.58440621475734       -2.61828649923444       -0.06206186106661
H            3.66814808924263        1.16988911271140        1.06221581378979
H            3.95692938254515        0.97720238626701       -0.66990798501070
H            2.66393163043681        2.06705845466161       -0.09572103838030
H            5.22880857118325       -1.69392369588551       -0.02474916829437
H           -1.70687126180276        3.10383212105542       -0.02491209846490
H           -2.88113581101037        2.13164564664046       -0.95095320532421
H           -2.93258265851952        2.11473040814746        0.81380202902703
H           -1.29539616539989       -3.16968928579006        0.83066953657998
H           -1.27126620653091       -3.15280326935709       -0.95689606593889
H           -2.66656047323388       -2.49949154324124       -0.07566454592958
H            1.27484706403041       -2.93597300807199       -0.01033896851964
25
 energy: 54.403717597091 xtb: 6.6.1 (8d0f1dd)
C            3.17866179831278        1.12089666210558        0.08687437776478
N            2.23147383373961        0.03067075109461        0.04418130438102
C            2.56852338932622       -1.25900571624890        0.17755860951951
N            1.34572292115909       -1.93369008636404        0.00563571516706
C            0.30164587295544       -1.05997045728369       -0.03672676446252
C            0.85451369045581        0.21636550250257       -0.01480415385328
C            0.06148008560603        1.40850718014279       -0.02575081666442
O            0.40136542169913        2.56577796318432       -0.00172972300211
N           -1.33710707970468        1.07727082776952       -0.03439110964688
C           -2.27938160908579        2.18266590937280       -0.04662537253715
C           -1.91162710445049       -0.17397107056823       -0.05252357293143
O           -3.10612500217694       -0.33952609390858       -0.06832065224776
N           -1.02970681536903       -1.27543232512282       -0.05142818759142
C           -1.58993663134437       -2.61553277768681       -0.06427013056112
H            3.65585101072142        1.15318343023899        1.06406992499792
H            3.94182415789883        0.95727221467228       -0.67232797849018
H            2.65935517499997        2.06082371990886       -0.09680364155073
H            5.49026295419139       -1.73968616550753       -0.02494427157079
H           -1.71189706914210        3.11090085159223       -0.02184725715067
H           -2.89057023795751        2.14208700971443       -0.94932216245838
H           -2.94047596345165        2.12338813823980        0.81868080715317
H           -1.28626149184329       -3.16249409419514        0.82777431727836
H           -1.26415393114628       -3.14758683093931       -0.95731567777314
H           -2.67418962880039       -2.52012201786307       -0.07651914316849
H            1.24296655837926       -2.93376373610664       -0.00209052840678
25
 energy: 53.054835557981 xtb: 6.6.1 (8d0f1dd)
C            3.17428527847588        1.11786709992256        0.09134585337227
N            2.21727713412300        0.03347568229011        0.05148826078401
C            2.51545226818220       -1.25365626558953        0.13548048731070
N            1.33312988131748       -1.92246366149541        0.01320021427877
C            0.29457672323867       -1.04590646332161       -0.03525719934027
C            0.84496635350446        0.22126255768608       -0.01920293466709
C            0.04594908223478        1.40093403868368       -0.01987199545193
O            0.41257489836176        2.55859768395024       -0.00262588663848
N           -1.33588579973338        1.07459617900498       -0.03378907583660
C           -2.27852640485996        2.18293374386172       -0.04823466130943
C           -1.90871487601240       -0.17597502520273       -0.05245388984641
O           -3.10660140342980       -0.33791075490169       -0.06952230573341
N           -1.04071637993703       -1.27084967895550       -0.04900018265348
C           -1.58997690765623       -2.61178008329828       -0.06423341308658
H            3.66259788631903        1.15563584188161        1.06454251118713
H            3.93744808023312        0.96230105802988       -0.67156697117718
H            2.65934281113952        2.05939222152827       -0.09018173392111
H            5.56003699446908       -1.77536206888319       -0.01923732707226
H           -1.70766627101236        3.10923818557991       -0.02319903064208
H           -2.88781846518016        2.14038623664226       -0.95127343232224
H           -2.93850704071440        2.12220378652007        0.81679921860558
H           -1.28575111205194       -3.16235117011391        0.82798682142489
H           -1.26238322117079       -3.14764215126899       -0.95691643851058
H           -2.67473289519143       -2.51736969186647       -0.07717431656452
H            1.27185769032336       -2.92852851194007        0.00993134000491
25
 energy: 52.686884263778 xtb: 6.6.1 (8d0f1dd)
C            3.17483130739459        1.11944964759798        0.08797062787982
N            2.21874560890357        0.04057599129065        0.05242533462204
C            2.51832258755496       -1.25720723612053        0.10987098352857
N            1.33349153254389       -1.92146548396452        0.00721977499627
C            0.29587039796763       -1.04284748592145       -0.03013726324165
C            0.84449352405236        0.22193990582039       -0.01144380175324
C            0.03764020160502        1.39765287041832       -0.01249603559002
O            0.41539236172015        2.55441859249994       -0.00201257235278
N           -1.33659148611301        1.07575712191904       -0.03198311708381
C           -2.28061196453111        2.18454808679069       -0.04929851726619
C           -1.90690669771558       -0.17591918691617       -0.04965091569494
O           -3.10675249063668       -0.33613800747892       -0.07012173691243
N           -1.04363299568698       -1.27048830517276       -0.04594929719151
C           -1.58967183179508       -2.61083722901984       -0.06337757798843
H            3.66205423441676        1.15649516530632        1.06224161269030
H            3.93949304833910        0.96086214497793       -0.67360463083435
H            2.66069281424536        2.06133455871268       -0.09434285032345
H            5.55709937526023       -1.78807713880551        0.01390948901644
H           -1.70949701440305        3.11046711259984       -0.02469623008413
H           -2.88904607531306        2.14034325632652       -0.95250786305892
H           -2.94130675148253        2.12384014441748        0.81493670479413
H           -1.28516950617872       -3.16245185965400        0.82873496919948
H           -1.26101351802722       -3.14643633833933       -0.95627678871685
H           -2.67501274120483       -2.51901992863109       -0.07654513902760
H            1.27930038405665       -2.92776760990965       -0.00583124741218
25
 energy: 52.315375083614 xtb: 6.6.1 (8d0f1dd)
C            3.17463677922613        1.12163192584786        0.08401721434421
N            2.22098378858832        0.05019677617684        0.04677242547043
C            2.53177065925717       -1.26034112667199        0.05492932418630
N            1.33559639861486       -1.92192179257032        0.00438924591485
C            0.29757884706058       -1.04185373671262       -0.01853134230091
C            0.84528866495465        0.22097767833158        0.00374234553933
C            0.02678182229155        1.39703541638859       -0.00852889074406
O            0.41688281156431        2.55169696248133       -0.00370625600344
N           -1.33581152895265        1.07855689705096       -0.03356041029800
C           -2.28178959482119        2.18636603909498       -0.04916467284623
C           -1.90475116842293       -0.17718928437501       -0.05083109741867
O           -3.10667861887218       -0.33353625212530       -0.07313815065127
N           -1.04593048742580       -1.27158996832203       -0.04197449754025
C           -1.58976949760721       -2.61076543282141       -0.06259729758058
H            3.65871017817123        1.15485152187439        1.06122683305598
H            3.94132825608658        0.96104971715966       -0.67428818569158
H            2.66132463077193        2.06467748007532       -0.09503552859548
H            5.54186144739479       -1.79963786289472        0.05900096721055
H           -1.70930265775086        3.11117280248948       -0.02442296485702
H           -2.89043808178274        2.14128116644815       -0.95185532411419
H           -2.94084169320784        2.12344576830818        0.81598685273189
H           -1.28595937115241       -3.16301121749142        0.82932006872200
H           -1.25992377742672       -3.14522418445222       -0.95573831284236
H           -2.67559978958082       -2.52099077797998       -0.07746110793720
H            1.28626628799376       -2.92784972656630       -0.01151732555974
25
 energy: 52.234058304497 xtb: 6.6.1 (8d0f1dd)
C            3.17459277224175        1.12060173771164        0.08190856355968
N            2.21984099372765        0.04878342260635        0.04099290303417
C            2.53444726886961       -1.25852963200980        0.04106288663785
N            1.33593086575243       -1.92167168328304        0.00116038675519
C            0.29703312685142       -1.04270668932666       -0.01357301654248
C            0.84573521843862        0.22014800706980        0.01021195213118
C            0.02707229519536        1.39892196917323       -0.00413981116650
O            0.41648131790921        2.55207120045565       -0.00077443510378
N           -1.33490415001344        1.07937218175323       -0.03163420572580
C           -2.28209084541110        2.18602968670994       -0.05028934270855
C           -1.90541760953103       -0.17808215375396       -0.04861160424849
O           -3.10669633455453       -0.33283893139259       -0.07325127048153
N           -1.04524063754109       -1.27139246592662       -0.03949357052031
C           -1.58982526380393       -2.61087171448583       -0.06273413291104
H            3.65731638161821        1.15394068831003        1.06012326585584
H            3.94205882623441        0.95926457797342       -0.67461918384076
H            2.66292090357317        2.06459434503101       -0.09749677928030
H            5.54283748098723       -1.79854601406824        0.07427893547699
H           -1.71126848111300        3.11181969516959       -0.02547843103845
H           -2.88969117589709        2.14036844691711       -0.95366632691708
H           -2.94273370215771        2.12382262445353        0.81379145800127
H           -1.28546202531958       -3.16382041888189        0.82809204418638
H           -1.26002775701897       -3.14365809770105       -0.95668079926668
H           -2.67555794419682       -2.52121502842109       -0.07718441698371
H            1.28486278013173       -2.92737696533976       -0.01496115670855
25
 energy: 52.178930436500 xtb: 6.6.1 (8d0f1dd)
C            3.17369898957412        1.11977787901262        0.08256256184358
N            2.21802871903439        0.04531768931857        0.03534719720344
C            2.53618959159608       -1.25575551386222        0.02868584893927
N            1.33638156700844       -1.92135052786452       -0.00024192528753
C            0.29634001459176       -1.04401596553920       -0.01025868354435
C            0.84578079219245        0.21956669499975        0.01339870925217
C            0.02968210537585        1.40064377067930       -0.00623122993242
O            0.41552962147236        2.55274177001005       -0.00279655247752
N           -1.33402369218089        1.07929765946555       -0.03329093627766
C           -2.28120837662007        2.18551622331369       -0.04970984672092
C           -1.90656496334227       -0.17920610418630       -0.05071887134885
O           -3.10676964311107       -0.33264711281938       -0.07440806830830
N           -1.04405355124675       -1.27104605885216       -0.03939417396171
C           -1.59017577129430       -2.61129282845913       -0.06213571108791
H            3.65482217709162        1.15255783104327        1.06166933453055
H            3.94184810194212        0.95969738415183       -0.67277109202937
H            2.66240218575547        2.06411228451498       -0.09612876804566
H            5.54645572285131       -1.79524822470338        0.08186877827383
H           -1.71082001971269        3.11176698330301       -0.02446003145932
H           -2.89029273890104        2.14134143786420       -0.95228445444456
H           -2.94076708421144        2.12305749034328        0.81536506440288
H           -1.28613089088757       -3.16328940296120        0.82898262804147
H           -1.26015772378171       -3.14443847628776       -0.95562130146172
H           -2.67563172974813       -2.52107190510309       -0.07719096718852
H            1.28165090152442       -2.92700418863774       -0.01320359671622
25
 energy: 52.174096046555 xtb: 6.6.1 (8d0f1dd)
C            3.17397955117403        1.11962068811163        0.08212013177643
N            2.21797205330172        0.04435625743230        0.03598661048559
C            2.53608847734284       -1.25536601868590        0.02866371864449
N            1.33649532109734       -1.92121180306493        0.00046392108691
C            0.29637368234681       -1.04406950323235       -0.00905309331855
C            0.84550654942859        0.21998298996173        0.01516735898593
C            0.03062787349239        1.40068140684554       -0.00377275512125
O            0.41484267502743        2.55321136594987       -0.00109337828374
N           -1.33437745589343        1.07906766692122       -0.03187939071786
C           -2.28132825819639        2.18533212361473       -0.05051876556727
C           -1.90679738309116       -0.17910652687600       -0.04928666215744
O           -3.10679124913319       -0.33283963728581       -0.07419129897994
N           -1.04378726010361       -1.27077097684320       -0.03888476393199
C           -1.59018418626675       -2.61122206226895       -0.06267456724698
H            3.65579969306944        1.15250245987745        1.06068023992394
H            3.94148369648016        0.95923908892148       -0.67393757749358
H            2.66250824307046        2.06376569624333       -0.09669592278869
H            5.54758255070078       -1.79456309219843        0.07996954479919
H           -1.71114620592209        3.11173212243880       -0.02545062265452
H           -2.88925492599699        2.14038739127341       -0.95381724222002
H           -2.94201042728067        2.12351933565723        0.81379767472866
H           -1.28600950443268       -3.16400186410668        0.82793476040791
H           -1.26031215345541       -3.14354718183175       -0.95671087641278
H           -2.67558117880714       -2.52075524772710       -0.07748740033947
H            1.28053412702003       -2.92691589038362       -0.01229573141044
25
 energy: 52.171215267538 xtb: 6.6.1 (8d0f1dd)
C            3.17399882606669        1.11979460415144        0.08261468114805
N            2.21816913329236        0.04395627076159        0.03665269375679
C            2.53590762493284       -1.25533036505700        0.02852612595880
N            1.33667428151211       -1.92121026946694       -0.00000324306884
C            0.29655960417295       -1.04413728981740       -0.00973106537218
C            0.84518961407733        0.22030421595292        0.01429451295138
C            0.03132918413353        1.40030836726704       -0.00500456833833
O            0.41452459049852        2.55330707459478       -0.00222321617166
N           -1.33471937172619        1.07885734959037       -0.03264194962685
C           -2.28129553943378        2.18541774568014       -0.05009258247686
C           -1.90668485917726       -0.17883953427430       -0.05011623955613
O           -3.10672170304630       -0.33307521812922       -0.07418796735436
N           -1.04364975207797       -1.27073035391037       -0.03978757724161
C           -1.59016660691356       -2.61126547559057       -0.06240334277656
H            3.65521334128421        1.15269727987901        1.06130201162729
H            3.94189879646862        0.95933227338720       -0.67312269603908
H            2.66230737424129        2.06363219507451       -0.09677565979388
H            5.54756676318563       -1.79455770924871        0.08036739712740
H           -1.71094895839291        3.11169882411615       -0.02495090382943
H           -2.88986531909721        2.14090878701650       -0.95298618594338
H           -2.94135946685549        2.12328065830476        0.81465942282203
H           -1.28586846043535       -3.16347616520309        0.82856754661497
H           -1.26042684340687       -3.14419738621509       -0.95614535816298
H           -2.67555699988720       -2.52069008694440       -0.07708465346472
H            1.28013905155646       -2.92695700317531       -0.01269327059528
