25
 energy: -42.497306246832 xtb: 6.6.1 (8d0f1dd)
C            3.17466914741824        1.12036410198869        0.08568656362760
N            2.21988276458838        0.04394595667766        0.04795638048540
C            2.53628783682406       -1.25671855122498        0.06362685000588
N            1.33629173449730       -1.91996983783869        0.01451534711532
C            0.29746648633369       -1.04241640670443       -0.01788577970143
C            0.84647072194963        0.22079821014338        0.00699309021228
C            0.03043314840214        1.39904824609996       -0.00844774027334
O            0.41315634369534        2.55238451244825       -0.00274546262968
N           -1.33529500975550        1.07706040017012       -0.03377702602625
C           -2.28131047291541        2.18399387986374       -0.04975704223528
C           -1.90663139709833       -0.17971288777958       -0.05091822474091
O           -3.10683012570001       -0.33645949508904       -0.06974366200029
N           -1.04300267650299       -1.27090609906386       -0.04579951930103
C           -1.58911027335223       -2.61239659994609       -0.06436278935580
H            3.65930537475027        1.15590662657619        1.06191871845595
H            3.93939558547006        0.95951346829064       -0.67328303363885
H            2.66009341261797        2.06217754655957       -0.09557458058110
H            5.53657329061923       -1.76320452491520       -0.02177939291005
H           -1.70918435993730        3.10901784827402       -0.02445739689706
H           -2.88894156639472        2.14012020248453       -0.95320426584229
H           -2.94161270753130        2.12251886716053        0.81458829494989
H           -1.28619429619828       -3.16261159436907        0.82793652306676
H           -1.26198567891285       -3.14763817947719       -0.95727158381975
H           -2.67391067313820       -2.51900885015834       -0.07707129828426
H            1.27906102402015       -2.92485964236826       -0.00691362304723
