72
 energy: -99.642541163314 xtb: 6.6.1 (8d0f1dd)
N           -1.63332946746214        2.28937356643968        2.53589422044746
C           -1.49078954241775        1.93528838541089        1.35562616842225
C           -2.62357296115112        2.02560078375482        0.31224613502810
C           -3.25555615807510        0.62483567049455        0.30573604222612
C           -4.29743618333381        0.30140555531570       -0.57693908740440
C           -4.90572504515582       -0.93954081436184       -0.54153998304347
O           -5.92448314465212       -1.35561642043297       -1.34350585124606
C           -6.45857277611836       -0.47465884968562       -2.29400406108051
C           -4.47993105831844       -1.90442394286459        0.39999129307480
O           -5.12797884727618       -3.10200125302845        0.37349272512892
C           -4.77046720629320       -4.07027407391279        1.32721385398237
C           -3.46185870902914       -1.57942472804186        1.26869191102095
C           -2.85909955979814       -0.33154777237673        1.21657718283734
C           -2.11174605835928        2.29871165451839       -1.13740856079014
C           -1.24386151202831        1.17948818741248       -1.77845123166539
C            0.13621908454241        1.08722061952136       -1.25892051293285
N            0.64008341330363        0.01063075189332       -0.55155908382475
C            2.03016821699884        0.03040666008741       -0.19544176961372
C            2.98817944297153       -0.51493760693876       -1.28171557029673
C            4.40885852221471       -0.40799443528839       -0.81994655360542
C            5.12622624584082        0.76121677043852       -0.99610732796102
C            6.43385474242735        0.86928914962440       -0.54613484809582
C            7.05057567003669       -0.19141771795861        0.09285444855626
O            8.33387527639107       -0.20128187268980        0.55452246056441
C            9.13057841258589        0.93660233568144        0.34041790729357
C            6.32187862568639       -1.38589016524030        0.29513666465163
O            7.00118545718598       -2.37665477667547        0.94042319089829
C            6.36090241356598       -3.60660266296379        1.15199629841475
C            5.01987915082912       -1.47571604370897       -0.15926410788966
C           -0.00340086580815       -1.27513779914176       -0.62846223955419
C           -3.78450626325444        2.97165268754204        0.78933083419475
C           -3.85393988123235        3.17090190906170        2.34375044846692
C           -3.88264832202898        4.27862359496240       -0.05663685370188
H           -4.63854428492598        1.03459915336472       -1.29178130714029
H           -6.88896670954393        0.41151544590247       -1.81863618099012
H           -7.24845805971014       -1.03413012735645       -2.79385283495182
H           -5.71110199813670       -0.16812792126463       -3.03311939370248
H           -4.92763672199098       -3.70764961951028        2.34792814482405
H           -5.42948542927267       -4.91691198909412        1.14342993418279
H           -3.72540993643757       -4.38892218778012        1.21809224838407
H           -3.12049158933784       -2.27678785440354        2.01435947568485
H           -2.08491517758412       -0.11017001240677        1.93157927239794
H           -2.96850540704040        2.41248251673884       -1.80879979223226
H           -1.53933508057000        3.22630081636400       -1.17528007662794
H           -1.76130512548588        0.22731239117574       -1.68530158480229
H           -1.16023623552882        1.40739902617891       -2.85148683921371
H           -0.55080879825994        1.52343607465561        0.94841665300766
H            0.73711511815902        1.97969572804565       -1.22988093890387
H            2.15141469182919       -0.56957880624880        0.71163497402095
H            2.31299033542141        1.06203646107427        0.02943361113507
H            2.84319160811745        0.06683065855810       -2.19369963121302
H            2.73759808627730       -1.55557002948025       -1.48688555744120
H            4.67323586275688        1.60413725287473       -1.49611292379267
H            6.96459242278216        1.79361029037573       -0.70992030919870
H            8.73431404343807        1.81406830866355        0.86278665375249
H            9.23028489674833        1.16546201855240       -0.72550302519117
H           10.10987566635534        0.68820856253850        0.74604463521028
H            7.09851450006942       -4.23471349832883        1.65030455883753
H            5.48131994842660       -3.49753261928492        1.79619933788125
H            6.06223488234720       -4.07599477750982        0.20807132603891
H            4.45907555506133       -2.38604814454340       -0.01439938600613
H           -0.10331852963979       -1.65036612333407       -1.65582676497837
H           -1.00171687777573       -1.21815052819403       -0.18517362774258
H            0.58085935964919       -1.99601483600345       -0.05878605013913
H           -4.71049184950586        2.43406152608517        0.55446893785245
H           -3.55144381813533        2.29530330977930        2.97727460119599
H           -4.85099146613948        3.33647262757981        2.69211127025629
H           -3.39794080325518        4.13693503772669        2.59287640916829
H           -2.95761179167610        4.84583465508480       -0.13470330631865
H           -4.21074474562319        4.05122960559673       -1.08851641299312
H           -4.64672190848662        4.93453910955149        0.35720815480618
H           -1.63618173051077        1.96720990287261        3.46639219336546
