72
 energy: 55.681116135190 xtb: 6.6.1 (8d0f1dd)
N           -1.42357050889039        1.94010924321052        2.33828103005063
C           -1.38947208864969        2.15459048587900        1.07447406591755
C           -2.36639940144534        1.76037806244243        0.13138259332372
C           -3.10646865566084        0.54465604557378        0.30208020687199
C           -4.02439543439190        0.10791226950380       -0.67798574903087
C           -4.73236440140657       -1.06135794926973       -0.53367991334510
O           -5.66141833023662       -1.54470871111738       -1.41444285927610
C           -5.99862195211617       -0.74717939998853       -2.51416963069994
C           -4.53234265065907       -1.86995880261096        0.60102234696317
O           -5.28633688310816       -3.00772187930430        0.62960080094310
C           -5.15213724283801       -3.85550363850886        1.73613075361377
C           -3.62333398856818       -1.45757694063506        1.55606007014674
C           -2.95716907706121       -0.25435856661788        1.43555727268723
C           -2.07446883385938        2.23746967698075       -1.22944565931418
C           -1.15407156225448        1.24484361704253       -2.04205924618209
C            0.21589629442700        1.17500428560274       -1.55680193734262
N            0.74101470213610        0.10127903963516       -0.90769653884573
C            2.10357874216963        0.11738042515892       -0.42490936462174
C            3.06552601431668       -0.61201914343966       -1.37937856277615
C            4.48210182311243       -0.49622139972053       -0.89668110173891
C            5.20300377723116        0.66459002982983       -1.10250894537706
C            6.50001980390654        0.79103667045360       -0.62237286685104
C            7.09911008313508       -0.24521211592460        0.07189371844386
O            8.36496795293803       -0.23637491268325        0.56919829447859
C            9.15567278695555        0.90715974296477        0.35835212853563
C            6.36708323523633       -1.43533671834199        0.29611613483495
O            7.03528450396458       -2.40402981929749        0.97859368598236
C            6.39839445667458       -3.63878541246989        1.19097252837412
C            5.07228323427106       -1.53710128585268       -0.18020785606797
C            0.01227301812798       -1.12827543859448       -0.72560280095418
C           -4.67582242347168        3.36151928867930        1.01806663556862
C           -4.79065009017640        2.45775167193246        2.16526326502665
C           -3.78420072496041        4.54043255564261        0.90795364378719
H           -4.20675992736152        0.72450457370671       -1.54222738210759
H           -6.35032016813321        0.24282446997226       -2.20259551724724
H           -6.79340068141282       -1.27961217736760       -3.03122483138046
H           -5.15310271803899       -0.63009258616654       -3.19580332185370
H           -5.41991947244182       -3.35264554945871        2.67243722300460
H           -5.83918075786054       -4.68085649479685        1.55679129823210
H           -4.13190983942023       -4.23872908031907        1.81447318800271
H           -3.43305202325228       -2.05746370915675        2.42900703786367
H           -2.26263197492115        0.04722349988099        2.20077680754631
H           -2.97152047910987        2.34478573667569       -1.83104766372579
H           -1.53808776599848        3.18700428150165       -1.21605257200397
H           -1.62750403641748        0.26838514065022       -2.05917442609019
H           -1.17595136258432        1.65444881357591       -3.04309027689734
H           -0.56322957018732        2.66470594888012        0.57121595509025
H            0.85890913674828        2.03211596633539       -1.63658135274746
H            2.17337516625685       -0.34628652747688        0.56524889485740
H            2.41433271307800        1.15096809234585       -0.30678045599984
H            2.96023028903513       -0.14635819559803       -2.35929263584502
H            2.77725261978295       -1.66125540244495       -1.46047063596467
H            4.76093937968947        1.48220217256094       -1.65166992267459
H            7.04042411675890        1.70652949362983       -0.80494669800009
H            8.71461569397461        1.79258467405511        0.82789259265028
H            9.30753869238580        1.09921935386650       -0.70875854900659
H           10.11556473705449        0.69216144606260        0.82847345130301
H            7.12737418698997       -4.25748182728428        1.71502934015847
H            5.50640579752687       -3.52991981134716        1.81572167830933
H            6.12254431012647       -4.11718003936280        0.24463132425061
H            4.50188538791114       -2.43740765630372       -0.01350804951057
H           -0.19134939320270       -1.59660434164086       -1.69197929589922
H           -0.93620423844731       -0.97190035527765       -0.20210340668479
H            0.60410864382504       -1.80851783244962       -0.11332334717580
H           -5.61943155264988        3.51064845838810        0.52674303139455
H           -3.86118089470323        2.19255374745480        2.65588846085151
H           -5.29567398750661        1.55455935980249        1.83436063981435
H           -5.45854761945912        2.95802114509466        2.87679170593394
H           -2.83525172612475        4.33394547085304        1.36389381650564
H           -3.64951437417325        4.85132630679233       -0.13902381541225
H           -4.27699656154719        5.35393460628897        1.45382758300353
H           -0.56688082433132        2.25719412408953        2.79058488123173
