72
 energy: 54.061039179042 xtb: 6.6.1 (8d0f1dd)
N           -1.35808641645002        1.82376120503476        2.30706676170340
C           -1.33081994192422        2.13873547491489        1.06201149777088
C           -2.27922025309198        1.70944061235759        0.11158390169689
C           -3.06440729291596        0.52015431541974        0.29368286774305
C           -3.98274577743980        0.08500491810270       -0.68932528361094
C           -4.71686984132816       -1.06833007179549       -0.53257557705314
O           -5.63968854253236       -1.55224731904134       -1.42496166479971
C           -5.94164681123680       -0.76948919720899       -2.54445954583006
C           -4.55270020099194       -1.85836482935189        0.62080645990540
O           -5.32839877221346       -2.98457416077228        0.66054380433455
C           -5.22134876797445       -3.81732939649158        1.78064343764150
C           -3.65274467185662       -1.44577699201652        1.58501016422568
C           -2.96051536092472       -0.26112758720766        1.45035741276247
C           -2.04045009429377        2.22188827349136       -1.23536366392242
C           -1.12737174509771        1.24015934978515       -2.10220577552200
C            0.23646214385798        1.14029620731595       -1.64759436884439
N            0.75185414344096        0.11236363217018       -0.94490658391914
C            2.11007743256128        0.14003257630158       -0.46201157020607
C            3.08004444740676       -0.61835877501748       -1.39252491563960
C            4.49585787053066       -0.50118862609638       -0.89998605381281
C            5.21949501177670        0.65679034761775       -1.11151275934129
C            6.51491685730866        0.78480606054134       -0.62879629442159
C            7.11049324874392       -0.25050582659491        0.06888178867115
O            8.37308760312327       -0.23780064318329        0.57406345597586
C            9.16603367739383        0.90455519964802        0.36530465995212
C            6.37899476623145       -1.43908546585255        0.29481913403429
O            7.04383499989260       -2.40475595315667        0.98434570612557
C            6.40796321888855       -3.63951649141599        1.19742616059328
C            5.08545332477294       -1.54253268125017       -0.18521457638385
C            0.01851551214721       -1.10782559448249       -0.73861505825025
C           -4.80141582950203        3.42717171205544        1.09590295056418
C           -4.84477830873699        2.43051276140619        2.17682801309331
C           -3.84302371286400        4.54831939321256        0.96033868889680
H           -4.14143056701787        0.68637826465151       -1.57111502200308
H           -6.27966101596199        0.23488986987549       -2.26152525067217
H           -6.73876833006427       -1.29619154716696       -3.06463036131507
H           -5.08365257345828       -0.68290682587620       -3.21710309241998
H           -5.49629279996169       -3.30104108802958        2.70827296148789
H           -5.91742408408236       -4.63599381860608        1.60323376971264
H           -4.20839899223424       -4.21649540714263        1.88120052656940
H           -3.48705096554445       -2.03196987385820        2.47281279292948
H           -2.27896293023225        0.04919579675531        2.22324529259532
H           -2.95077702696474        2.32333114184063       -1.81866056395039
H           -1.51276192573217        3.17547073971366       -1.21968988082883
H           -1.61775213813465        0.27239742446150       -2.13392462430449
H           -1.16578105493788        1.70968998453666       -3.07701636771839
H           -0.57786915864341        2.79989362828646        0.60959923837378
H            0.87692388449382        1.99407501845293       -1.71805444533814
H            2.16950369937247       -0.29878687649707        0.53985748069218
H            2.42982678376268        1.17359468565501       -0.36527923197847
H            2.98739099110519       -0.17547253629115       -2.38486270741678
H            2.79079207192918       -1.66923889265760       -1.45358135061851
H            4.77999816182470        1.47225006578784       -1.66576915132276
H            7.05583887654146        1.69961258368634       -0.81298726835454
H            8.72398870081940        1.79181022408956        0.83048122063148
H            9.32321699595138        1.09424564680246       -0.70189180479435
H           10.12285249884564        0.68920635846452        0.84168785931256
H            7.13650135321518       -4.25418068300665        1.72625991819131
H            5.51255022548423       -3.52971337862925        1.81899526028964
H            6.13675860788886       -4.12080187805913        0.25076091006766
H            4.51570709444887       -2.44264253590461       -0.01608540339946
H           -0.18947502652068       -1.58294559747951       -1.70037411413125
H           -0.92616443496497       -0.93639067436104       -0.21330826330724
H            0.61305559303952       -1.78044412620577       -0.12241047141035
H           -5.75652317988855        3.60878845911192        0.63090280957983
H           -3.88852931483551        2.12429796029974        2.58819373788543
H           -5.36169090113619        1.54753207984069        1.80838885774485
H           -5.46884592442311        2.86534214157673        2.96551020687286
H           -2.88788934721827        4.28058362059551        1.37005013724141
H           -3.73382621587792        4.86441509493838       -0.09117399164292
H           -4.25911123788569        5.38257465921673        1.54260478457294
H           -0.55088331627137        2.18569570357955        2.80970895887384
