72
 energy: 54.998518614661 xtb: 6.6.1 (8d0f1dd)
N           -1.48145223294443        2.05580748537630        2.37174947630024
C           -1.44649657966694        2.18010228941573        1.09953221242544
C           -2.46403757157781        1.82694747231506        0.15610263736742
C           -3.14640968494153        0.56748671237627        0.30822020847191
C           -4.06586381237560        0.13157055961135       -0.66793481683205
C           -4.74814047688165       -1.05487386753186       -0.53551881730172
O           -5.68316529967877       -1.53773030363117       -1.40507059703029
C           -6.05522985519542       -0.72537722527602       -2.48352744981477
C           -4.51261860733826       -1.88076561899748        0.58029258284457
O           -5.24772903665633       -3.03338926020958        0.59755753121199
C           -5.08429395602271       -3.89367306471583        1.69001382645474
C           -3.59355132044880       -1.47103486437514        1.52657652932756
C           -2.95009177127309       -0.25136199093798        1.41531370229800
C           -2.10606826215563        2.25483717666821       -1.22793425042678
C           -1.18438752444439        1.25307263039806       -1.99694068675493
C            0.18822332964224        1.18343532321187       -1.45892547932895
N            0.73750012921443        0.07360005476144       -0.86962061624040
C            2.09735972855803        0.09152473675323       -0.38771650880884
C            3.05441931201907       -0.60511933091008       -1.36593785966048
C            4.46824468088708       -0.48973131849519       -0.88924526412881
C            5.18740156673557        0.67251619815413       -1.09179328112363
C            6.48564553082579        0.79715535013086       -0.61481183923674
C            7.08734619275477       -0.24183083644226        0.07384267307780
O            8.35809290529143       -0.23462635469695        0.56474938608230
C            9.14563883674218        0.90930577292566        0.35144413731237
C            6.35542281408486       -1.43099212326256        0.29781610901098
O            7.02654691345050       -2.40464117557651        0.97321323714958
C            6.38836748282101       -3.63778188246277        1.18454186779941
C            5.05924952514551       -1.53174010112360       -0.17566534722239
C            0.00502614133551       -1.15599697154690       -0.71017783892413
C           -4.53587494043535        3.28925671129980        0.93520134529368
C           -4.74489352407390        2.49431756191214        2.14443379094706
C           -3.72696494905984        4.53423898424773        0.85269344978229
H           -4.27034253738692        0.76353697395827       -1.51806727514909
H           -6.42068206293400        0.24905662654697       -2.14286947668164
H           -6.84763134855635       -1.26361254120368       -2.99770016578682
H           -5.22278715120851       -0.57475833046777       -3.17403464804081
H           -5.34345343526670       -3.40443509866527        2.63564589341595
H           -5.76276968759877       -4.72517397467060        1.50828064096862
H           -4.05729373311642       -4.26154404206373        1.74736946501135
H           -3.37921101606473       -2.08629949811268        2.38569822451379
H           -2.24637089357313        0.04244600953265        2.17579332470817
H           -2.99073753300590        2.36774927299676       -1.84518623830440
H           -1.56203105571375        3.19995787615182       -1.21389440888770
H           -1.64259128665364        0.26641604391622       -1.99166411548169
H           -1.17920217905597        1.60514648045302       -3.03885445747370
H           -0.56075930151363        2.52694947650844        0.56169196933102
H            0.84124560623591        2.03178518164779       -1.53078601249791
H            2.18164569230807       -0.38867450253545        0.59444316041832
H            2.38996589347267        1.12919729279664       -0.25192237115257
H            2.93407340903120       -0.11712489762373       -2.33314596184414
H            2.76463292500651       -1.65242148884502       -1.46828611839741
H            4.74207192681248        1.49055243245419       -1.63566154595634
H            7.02529351374690        1.71351421929415       -0.79660441090792
H            8.70675323069552        1.79424597751345        0.82403551415802
H            9.29251391523612        1.10361722293303       -0.71629736025325
H           10.10910061500983        0.69429362493898        0.81470761828821
H            7.11888822586174       -4.25946954922567        1.70373284926094
H            5.49801529289721       -3.52987342554241        1.81177312551557
H            6.10825473937720       -4.11438212807313        0.23872251435949
H            4.48975413957086       -2.43280909714811       -0.00714285155239
H           -0.19540185086478       -1.61291250235447       -1.68384432921506
H           -0.94560946039178       -1.00516404840719       -0.18415313633294
H            0.59471527175891       -1.84456511027750       -0.10648071987355
H           -5.46992304595696        3.40408896843812        0.41310306911945
H           -3.84461887203772        2.28286646048494        2.70071634202535
H           -5.23398493901879        1.56814284398851        1.86326289127014
H           -5.45118244237728        3.04242152227490        2.77191175945982
H           -2.78944447727563        4.39126785089687        1.35384503266203
H           -3.56954219130154        4.84055300307434       -0.19178772673730
H           -4.28518817189400        5.32661126632571        1.36127084449396
H           -0.59592855102455        2.32291165503520        2.80636888702797
