72
 energy: -2.292088360208 xtb: 6.6.1 (8d0f1dd)
N           -1.54808123852613        2.62402576742333        2.34799903626922
C           -1.58309160884304        2.18497833431566        1.16639067958904
C           -2.79229013866941        2.08538570386918        0.25324359055982
C           -3.28552407577131        0.64411508453594        0.32713328731673
C           -4.24596309405222        0.22270340497263       -0.59849166814568
C           -4.82256559905798       -1.02969630887513       -0.53348961777995
O           -5.78438202759704       -1.50597826618062       -1.37446142492507
C           -6.31103426220849       -0.63829326786548       -2.34326730461073
C           -4.42477047333576       -1.92732295151325        0.47851838757781
O           -5.05582972114694       -3.13550733985668        0.45814930530078
C           -4.76811083097058       -4.05135404746358        1.48040334915427
C           -3.46128775663498       -1.52351383597446        1.38150585462967
C           -2.90112775560648       -0.25077696114024        1.30909636571998
C           -2.21005855747532        2.30443697430577       -1.19344122056860
C           -1.25724437028012        1.20548876602041       -1.73689117706577
C            0.04262553040747        1.16173734219450       -1.01457388854532
N            0.66579919279810       -0.02154729640195       -0.63327597091889
C            2.02860106304341       -0.00640841603250       -0.21610351892820
C            2.96642743551312       -0.55675627411712       -1.30549365385205
C            4.38616827761710       -0.44629109083828       -0.85568404025564
C            5.10338652806865        0.71809254942146       -1.05752887246892
C            6.41086429489107        0.83204321929409       -0.60726177401340
C            7.01882293164884       -0.21664613813306        0.06025718999861
O            8.29545245432020       -0.21671775246225        0.53724840481727
C            9.08700241614916        0.92351443561695        0.32860597754505
C            6.29071638347841       -1.40641127697870        0.28314579394939
O            6.97006029880985       -2.38756981842843        0.94192604852531
C            6.33316134867483       -3.61890022464838        1.16138183894865
C            4.98860561742511       -1.50119779582651       -0.16995486091753
C           -0.03112596302142       -1.27271939038053       -0.64177933115101
C           -3.99363071654946        3.08367784103735        0.64169179718292
C           -4.56274233275807        2.70700005808967        1.99600408676727
C           -3.47944485925905        4.52527643645788        0.62216956531590
H           -4.56372830643677        0.90555035361696       -1.36854633585625
H           -6.74368886888731        0.25953057897982       -1.88917017699659
H           -7.09246137809736       -1.20443690930737       -2.84717726805777
H           -5.55297286473668       -0.34128107526025       -3.07451621014879
H           -4.99768690891503       -3.63742877930652        2.46777082529872
H           -5.40845839934499       -4.91072891836045        1.28839294738657
H           -3.71979683473665       -4.36553368664861        1.45583795413455
H           -3.14544167570100       -2.18577627347580        2.17200225159886
H           -2.17143434152730        0.03096044196973        2.05231102393299
H           -3.04595060325867        2.41447778814557       -1.88454022650408
H           -1.63605204846704        3.23382301925227       -1.20516196402126
H           -1.76237158512172        0.24196781514224       -1.70643088231142
H           -1.05835193614381        1.42948592937285       -2.79618926577536
H           -0.66202915822552        1.85922834331777        0.62419160304742
H            0.69623342320186        2.00999929548598       -1.08686279326047
H            2.15009607167238       -0.59904152720182        0.69825054659573
H            2.32054458581550        1.01889544242381        0.01735244068281
H            2.80631234831452        0.02424932366234       -2.21448381991212
H            2.70258204549532       -1.59580377288994       -1.50794338227319
H            4.65057831857102        1.54552938949433       -1.58259600577918
H            6.94963283733814        1.74788556815757       -0.79188945265752
H            8.66428412924465        1.80669351807158        0.81943199404071
H            9.22332237238822        1.13231080400803       -0.73806712150081
H           10.05290235121584        0.69307343499497        0.77573495031747
H            7.06895735421646       -4.24214807677636        1.66845108290154
H            5.45184096453455       -3.51179575613421        1.80227720999247
H            6.04132107479198       -4.09782884683543        0.22036906823049
H            4.42276471640255       -2.40588730694093       -0.00873719752323
H           -0.21111552292981       -1.64167348150455       -1.66058688875419
H           -0.99643594633995       -1.18507498552256       -0.13122732273245
H            0.56979813706972       -2.00368627243083       -0.10533825196729
H           -4.83508375236195        3.04547437283852       -0.06048290707838
H           -3.77417552397260        2.74587113507772        2.73455694936009
H           -4.96538043208064        1.70060181652597        1.95160251763452
H           -5.37246256377110        3.37605770394160        2.28219828508339
H           -2.63903706288543        4.61312908244158        1.30074912806735
H           -3.17139851605645        4.81751350705423       -0.38087922621248
H           -4.25315288584270        5.22138534842234        0.94439655763593
H           -0.60748372430703        2.65429895622255        2.75247717754892
