72
 energy: -5.652884064257 xtb: 6.6.1 (8d0f1dd)
N           -1.50817006959921        2.72939489180972        2.27810859320684
C           -1.55584254292263        2.16404812512325        1.15642950472693
C           -2.76418557918720        2.07224805506214        0.25159819063219
C           -3.30524577043525        0.64787677927444        0.32637843718572
C           -4.28362356561236        0.23880169444000       -0.58389961126908
C           -4.83967533916666       -1.02439873194808       -0.53229416597668
O           -5.80745778373528       -1.49431134504531       -1.36861447263570
C           -6.36835679878264       -0.61936144253005       -2.31274468724959
C           -4.40674569638460       -1.93745870003115        0.45428715899583
O           -5.01304280702048       -3.15702492961449        0.42672021726216
C           -4.69814834129989       -4.08410997614649        1.43282716665217
C           -3.43450029643567       -1.53695056845648        1.34981946273653
C           -2.89094949390857       -0.25755364342239        1.28634455521677
C           -2.19948460013015        2.30210468986747       -1.18466768037109
C           -1.26110597070933        1.18757335054454       -1.68798157910604
C            0.01690689696953        1.13953359459593       -0.93201429682791
N            0.64401616121105       -0.03859927883331       -0.58302127757887
C            2.01111675384589       -0.02462427809080       -0.17782820908168
C            2.94512780928628       -0.54507107331640       -1.28882052163151
C            4.36775770120458       -0.43674139648495       -0.84404107075767
C            5.08462262985765        0.72758954294397       -1.04763268826649
C            6.39461061776662        0.83932405377030       -0.60528406982923
C            7.00420535311596       -0.21113039302143        0.05738409336604
O            8.28194723984991       -0.21289222707903        0.53020928961212
C            9.07463159934568        0.92709405793862        0.32273594873661
C            6.27674168524867       -1.40216367659362        0.28028413511898
O            6.95826872113731       -2.38437165659222        0.93409782161387
C            6.32092217369411       -3.61529471670145        1.15588750990759
C            4.97275160284830       -1.49543525646298       -0.16613036289208
C           -0.04400005980882       -1.29414955105976       -0.62875012943161
C           -3.90959413025416        3.07877991413442        0.60463102393242
C           -4.51821873493582        2.75253499824975        1.96206399824853
C           -3.42220081565454        4.52767864728107        0.57476069807892
H           -4.62684929105712        0.93247078652577       -1.33365615475854
H           -6.81654190107666        0.25825294807508       -1.83523760674692
H           -7.14689148282736       -1.19353029668724       -2.81286032359569
H           -5.63014415082271       -0.29287993117628       -3.05305583536415
H           -4.92136851302267       -3.68927477225565        2.42944072911448
H           -5.33019001883620       -4.94898072054180        1.23752309409991
H           -3.64655313956115       -4.38780597349261        1.39022091250411
H           -3.09535162974620       -2.20811658825634        2.12316925675977
H           -2.15394143205576        0.02544335131299        2.02217849313291
H           -3.03171832725973        2.39332635633829       -1.88209757330816
H           -1.64585776305708        3.24286913130717       -1.20022084943705
H           -1.78947565929851        0.23621072184333       -1.64979491562513
H           -1.02513389484026        1.39468807414703       -2.74088096669372
H           -0.67398667109914        1.71861919805948        0.63491668898007
H            0.66168072790172        1.99826866869550       -0.98778120994414
H            2.13169885627836       -0.64419945442598        0.71707744797782
H            2.30694206955148        0.99547729757246        0.07848283988839
H            2.77956469187462        0.05458993729340       -2.18554323686236
H            2.68823297293530       -1.58125776624011       -1.51327260077428
H            4.63097923663773        1.55727527130007       -1.56937151848435
H            6.93293719491434        1.75467315354490       -0.79236466054882
H            8.65502958804760        1.80929703573171        0.81807882695028
H            9.20857166349978        1.13887666585714       -0.74356794255710
H           10.04078452821376        0.69244193447246        0.76658034520314
H            7.05814760243099       -4.23819442440017        1.66031183850291
H            5.44182920101672       -3.50705628872061        1.79999930835040
H            6.02640172527055       -4.09476294407925        0.21602995175202
H            4.40813794874982       -2.40159039882342       -0.00834893269195
H           -0.21772492403370       -1.62695054067445       -1.65875708855172
H           -1.01002329323046       -1.22448768975285       -0.11851005235933
H            0.56408437357044       -2.03695526827394       -0.11850618135687
H           -4.70641113194957        2.98585420471863       -0.14184233609859
H           -3.76241898350827        2.85115638109948        2.73189628705471
H           -4.90374453607024        1.73670568061770        1.97121124993595
H           -5.34064496662396        3.43043108579491        2.17803838101254
H           -2.61275634136436        4.66272135929680        1.28474796103007
H           -3.08183940070863        4.81587437573963       -0.41711947039915
H           -4.23417068913796        5.19643241739210        0.85277001705169
H           -0.59762819297838        2.73258570853310        2.73757643767174
