72
 energy: 47.007544800198 xtb: 6.6.1 (8d0f1dd)
N           -1.51492200816159        2.19563936698673        2.38775954967460
C           -1.49851802196611        2.21268605087364        1.11819404520315
C           -2.58661565440134        1.91562236439357        0.18506526147626
C           -3.18445882802088        0.58769338590311        0.31636438254923
C           -4.10606759569354        0.15567298948663       -0.65375628279194
C           -4.76309266548339       -1.04775273584619       -0.53554366342863
O           -5.70431807875718       -1.53305629622591       -1.39619477489080
C           -6.11138414851533       -0.70400740677796       -2.45116456829217
C           -4.49188666935492       -1.89072243056480        0.55922661988257
O           -5.20642148204349       -3.05589949401068        0.56648980622939
C           -5.01606220339324       -3.93039105173629        1.64355673991247
C           -3.56229073336239       -1.48347377212892        1.49543267430723
C           -2.93817165376288       -0.24860575688641        1.39297775302157
C           -2.14090225996581        2.27159967195682       -1.22281997282115
C           -1.20317940602889        1.24832680272418       -1.94239443404608
C            0.16132491593781        1.17962877007853       -1.35885769393609
N            0.73215789391730        0.04316766454854       -0.81933088386298
C            2.09012473897107        0.06401861195252       -0.34927478758671
C            3.03882007608502       -0.59673487926520       -1.35386936708356
C            4.45189790038507       -0.48194248994092       -0.88378434180552
C            5.16923799106959        0.68193279706585       -1.08384488723038
C            6.46905305367471        0.80511593112460       -0.61169562673261
C            7.07233768217776       -0.23639406341301        0.07165364773973
O            8.34475399745800       -0.23060938263393        0.55892925443111
C            9.13266133173735        0.91177044934737        0.34637891546355
C            6.34169974226581       -1.42493242146532        0.29556327122441
O            7.01392954958779       -2.40134425268869        0.96755840664935
C            6.37628325147188       -3.63343868720554        1.17955403348800
C            5.04476806358590       -1.52531239924360       -0.17508531124228
C            0.00069504004546       -1.18669838702985       -0.69289728400757
C           -4.38242658967278        3.20780677237084        0.84950815864255
C           -4.71217452042842        2.54118207049450        2.11880331733958
C           -3.68194352009627        4.53192804337078        0.79930292689961
H           -4.33443930354145        0.80024461466075       -1.48861100901796
H           -6.48776130368202        0.25819255288763       -2.08303335554780
H           -6.90172686942955       -1.24789336380627       -2.96303964394550
H           -5.29354248007321       -0.51972994270733       -3.15196871924452
H           -5.26624067329211       -3.45672464877760        2.59967731209019
H           -5.68596856892864       -4.76851597684951        1.45887903680401
H           -3.98300216474667       -4.28236561979330        1.67926686802985
H           -3.32578303965136       -2.11087000780009        2.34016838340359
H           -2.22845874525256        0.04064105171542        2.15021311668878
H           -3.00769084265006        2.38819272823461       -1.86298773377844
H           -1.58588921145467        3.21003417392969       -1.21214590187151
H           -1.66376569724431        0.26095702801870       -1.92596158516033
H           -1.16085872914496        1.55832636149123       -2.99340303791020
H           -0.57253131150664        2.37119450376886        0.55095445167899
H            0.81663192676866        2.02424918988518       -1.42984047148258
H            2.18771101388401       -0.43411218494677        0.62359481992784
H            2.37235434713871        1.10349386757722       -0.19374886820281
H            2.90594322888007       -0.08584059922578       -2.30770530501305
H            2.75125461356911       -1.64233856665423       -1.47882227490479
H            4.72129152071865        1.50183431024643       -1.62264880422314
H            7.00849300220901        1.72157409960887       -0.79342021980728
H            8.69766310222338        1.79701348126923        0.82258741734098
H            9.27705022217507        1.10981899012545       -0.72133616436726
H           10.09755433179880        0.69456687906747        0.80484883194026
H            7.10811379077800       -4.25693652973645        1.69478032581566
H            5.48760280770613       -3.52668398581398        1.80961605726510
H            6.09312860641119       -4.11041381461367        0.23476067490778
H            4.47526927359066       -2.42633478434630       -0.00643769620235
H           -0.19474596315924       -1.63021864599517       -1.67514217617675
H           -0.95493827291289       -1.04427231680570       -0.17159007606275
H            0.58815370840393       -1.88216979127433       -0.09611223522526
H           -5.30912391058275        3.29316263687365        0.29086950919916
H           -3.83624682506208        2.38251468429072        2.73011934276612
H           -5.17301541262070        1.58730232619500        1.88753382959813
H           -5.45513491666982        3.13079549776979        2.66472260426646
H           -2.75506519371068        4.44919593485345        1.34509901409614
H           -3.48730731767330        4.83278880285026       -0.23920824053645
H           -4.29888460881848        5.31430996151878        1.26728027106020
H           -0.60475219153374        2.39545319322688        2.81046775320013
