72
 energy: 52.865893360181 xtb: 6.6.1 (8d0f1dd)
N           -1.31978969225671        1.77730730988617        2.29456450945374
C           -1.30194796121518        2.12570910530866        1.05895149079914
C           -2.23978818684800        1.68446848349029        0.10283882501442
C           -3.04331381237265        0.50556289693936        0.28871376853274
C           -3.96244886849114        0.07112360922899       -0.69406872649341
C           -4.70961626867394       -1.07369324587811       -0.53193815463236
O           -5.62886738551033       -1.55648171713311       -1.43016017651848
C           -5.91337856809601       -0.78194294436468       -2.55962265220153
C           -4.56410051011510       -1.85433909064344        0.63037537943800
O           -5.35026054411498       -2.97406674119443        0.67603642653670
C           -5.25559205402121       -3.79810521198012        1.80341737489237
C           -3.66754785797999       -1.44119270729565        1.59796187126864
C           -2.95815776185349       -0.26859392897528        1.45381020909991
C           -2.02282279941951        2.21355877214539       -1.23983755607106
C           -1.11683477025381        1.23965602018354       -2.13247870182244
C            0.24789241218531        1.12770804919492       -1.69076561989272
N            0.75407617388509        0.12753831269090       -0.95065907887806
C            2.11438777878580        0.15331843366352       -0.47962489603809
C            3.08653085888043       -0.61888768747227       -1.40061739859209
C            4.50204989297102       -0.50317580084077       -0.90602809530771
C            5.22735697621571        0.65383646012547       -1.11770909917323
C            6.52190695276529        0.78239157438649       -0.63385575765266
C            7.11535287969855       -0.25224578808251        0.06594511477693
O            8.37699828934511       -0.23827842137034        0.57675042849957
C            9.16997850960448        0.90326919143103        0.36972771986579
C            6.38411157081039       -1.43951058864313        0.29245890720101
O            7.04740010404562       -2.40477827803222        0.98660794508304
C            6.40998000953106       -3.63774443395032        1.20071996603156
C            5.09136984387666       -1.54385320034683       -0.18937410254876
C            0.02167624884601       -1.09413468096878       -0.74418913025543
C           -4.86058426554375        3.46294395808671        1.13585875131902
C           -4.87385873885974        2.42467772823884        2.18225589364693
C           -3.87134326062002        4.55496932324762        0.98615242437662
H           -4.10953384944901        0.66515051946637       -1.58296489230623
H           -6.24488979348423        0.22828495772968       -2.29033097635806
H           -6.71164042411282       -1.30574313711510       -3.08154756230871
H           -5.04901631158217       -0.71018701807005       -3.22662621364508
H           -5.53416103827551       -3.27413080913430        2.72589291909807
H           -5.95601442982405       -4.61326563608586        1.62691812442774
H           -4.24607523707475       -4.20419032055320        1.91464673716723
H           -3.51520006585849       -2.01958295045994        2.49353697132290
H           -2.28762560925226        0.04844740845661        2.23321457008626
H           -2.94059721457136        2.31444413106435       -1.81211716299410
H           -1.49916557891150        3.16872817082176       -1.22010302207588
H           -1.62388959030970        0.28060161569841       -2.16733997953438
H           -1.14205682575128        1.72512785386246       -3.09825966967461
H           -0.58189720084669        2.84603590296879        0.63112974030092
H            0.88501450826202        1.98511229065946       -1.76252694062554
H            2.16644730803922       -0.27731233566922        0.52564273005269
H            2.43888074776572        1.18643554846804       -0.39255066539904
H            2.99979887770033       -0.18832951802249       -2.39897360775736
H            2.79509338188329       -1.66981951317137       -1.44727407361517
H            4.78946200463487        1.46897404894276       -1.67385654497606
H            7.06264648098507        1.69688252716453       -0.81909397381702
H            8.72792977268558        1.79198055759047        0.83282399752186
H            9.33080532163223        1.09283521264293       -0.69735138039109
H           10.12494575206842        0.68747061598337        0.84937898695561
H            7.13638596969006       -4.25074638320439        1.73297186135078
H            5.51085580192679       -3.52599108254315        1.81871727761281
H            6.14319304937409       -4.12250671789689        0.25399568023983
H            4.52240570271263       -2.44448990498746       -0.01969183358845
H           -0.18611973346312       -1.57300349774212       -1.70481587623737
H           -0.92324358396175       -0.91844485793424       -0.22058340695892
H            0.61663943797239       -1.76445702531258       -0.12644760929221
H           -5.82118103402116        3.65956407183325        0.68304161077698
H           -3.90188697179412        2.10818763516022        2.54480215167951
H           -5.39578723069591        1.55270072610168        1.79508866756496
H           -5.47165915920712        2.82163408118824        3.00993619219885
H           -2.91448335153968        4.25572929228341        1.36981372797505
H           -3.77311022855729        4.87278216509896       -0.06570767358261
H           -4.24232247312327        5.40507919605186        1.57914186337449
H           -0.53991231304804        2.15460529705088        2.82530479511627
