72
 energy: 29.375115735921 xtb: 6.6.1 (8d0f1dd)
N           -1.52280921719129        2.33153456608344        2.38125736094595
C           -1.54366427217889        2.24107276758427        1.12410915481679
C           -2.70750198847959        2.00333193828858        0.21341489087603
C           -3.22280209013796        0.60558478520540        0.32615752190413
C           -4.14802051101185        0.17744824277131       -0.63699344904307
C           -4.78044022148933       -1.04184186025408       -0.53468580477133
O           -5.72706340631956       -1.52654575976490       -1.38826741755368
C           -6.16849893250205       -0.68508039783946       -2.41974955885574
C           -4.47173765852975       -1.90086241670521        0.53706697418534
O           -5.16479792827728       -3.07872529908762        0.53524263642680
C           -4.94579144912014       -3.96489199147863        1.59674794287889
C           -3.53104277853552       -1.49535159216778        1.46257682900302
C           -2.92609304526046       -0.24646707973482        1.37014871769433
C           -2.17831109117688        2.28859796131978       -1.21891720530463
C           -1.22507705413614        1.23851267256703       -1.87774741314456
C            0.12010960045981        1.19875910911262       -1.24938185195773
N            0.71651999084911        0.02523560515101       -0.76576613605006
C            2.07139651001161        0.04391941326623       -0.31147746371962
C            3.01970018638780       -0.58601190209597       -1.34042905143865
C            4.43338409905481       -0.47242715914450       -0.87648089189641
C            5.15095450684074        0.69204309124219       -1.07565036683876
C            6.45259684421873        0.81313738388142       -0.60951420735525
C            7.05717640319871       -0.23114873306926        0.06860803359539
O            8.33159450547709       -0.22696632015001        0.55321814441899
C            9.11960472750969        0.91454943662489        0.34132882868734
C            6.32765708670713       -1.41871853871373        0.29202762311698
O            7.00186238028940       -2.39744770720928        0.96071007003681
C            6.36415356221010       -3.62887028495851        1.17437861966357
C            5.02945279471591       -1.51844708937417       -0.17404406184050
C           -0.00284157846923       -1.21217164827270       -0.67646867890856
C           -4.23258078437367        3.13753457166884        0.76857939381604
C           -4.66790010169452        2.59186021222899        2.08591177039936
C           -3.62550409488256        4.52882942634768        0.74489221159692
H           -4.39998721487615        0.83412882822824       -1.45441008138110
H           -6.56105304191953        0.26120645251302       -2.02787098467482
H           -6.95643119170415       -1.23478903351194       -2.92985834625010
H           -5.36678056010766       -0.46842442613357       -3.13005330398579
H           -5.18936340956239       -3.50775112061697        2.56236289113869
H           -5.60691197372462       -4.80987585160142        1.41154027266433
H           -3.90776002265381       -4.30571840667096        1.61509125010649
H           -3.27185574808288       -2.13276037824630        2.29233040769193
H           -2.21150868273538        0.04043595879000        2.12372714001621
H           -3.02695151258839        2.40658575850144       -1.88107303361858
H           -1.60894153691893        3.21900974945100       -1.21234748802840
H           -1.68569905254945        0.25036478820109       -1.85949378128393
H           -1.13947777110590        1.52279642896536       -2.93559556829501
H           -0.60009248199616        2.21296340401388        0.55151092903427
H            0.78631286737800        2.02851002167441       -1.33470342389881
H            2.18475155179978       -0.48085731403552        0.64787662043435
H            2.35606453790528        1.08007054594969       -0.13424963768101
H            2.87687762986848       -0.05494950443297       -2.28153860829318
H            2.73734363412084       -1.63000190255683       -1.48680675189816
H            4.70038556969681        1.51306779821807       -1.61067788739491
H            6.99205310337068        1.72953751349197       -0.79137125146483
H            8.68823503608061        1.79982632869142        0.82123428273714
H            9.26160927775319        1.11610635598579       -0.72623270474171
H           10.08538089362015        0.69494498270126        0.79602764184510
H            7.09663937910203       -4.25307758019030        1.68731466169059
H            5.47730527633977       -3.52253203968491        1.80746397944878
H            6.07831357810671       -4.10653693454067        0.23069417042516
H            4.46079274139682       -2.41996561495017       -0.00656098175438
H           -0.19360600067830       -1.64561076482544       -1.66653216222042
H           -0.96418327907778       -1.08511970003409       -0.16044863615040
H            0.58378814547585       -1.91580996195564       -0.08819702439974
H           -5.15999166910179        3.20647964287096        0.17229022511571
H           -3.81410840492485        2.48277611198528        2.74086795490421
H           -5.11514565738840        1.62137511575291        1.90468030521144
H           -5.43744922475849        3.21950128169857        2.55253489949124
H           -2.72754824794893        4.50873297089483        1.34269916835939
H           -3.39761164248927        4.82500109316568       -0.28518831804561
H           -4.29485798613092        5.28794201325047        1.16972666681452
H           -0.59046895766663        2.46184099159909        2.77574451086064
