72
 energy: 55.012407698800 xtb: 6.6.1 (8d0f1dd)
N           -1.39280543485540        1.88254158279162        2.32104637855678
C           -1.36313684564946        2.14900369751534        1.06600215364869
C           -2.32276301803101        1.73447543544857        0.12005882790001
C           -3.08608114564993        0.53330569089659        0.29794571396964
C           -4.00382649752813        0.09705152556051       -0.68408223345050
C           -4.72482212981592       -1.06434156375291       -0.53298714400419
O           -5.65091754145573       -1.54863547481307       -1.41974033748315
C           -5.97008337670768       -0.75801700209675       -2.52918092395958
C           -4.54218736335048       -1.86362175231048        0.61127952653435
O           -5.30693934427510       -2.99581130330207        0.64538486045434
C           -5.18682497909268       -3.83673780066248        1.75853615104229
C           -3.63784083584173       -1.45071849584816        1.57095723553726
C           -2.95982360602247       -0.25604363025501        1.44369358170212
C           -2.05779256442949        2.23027837003514       -1.23231206866683
C           -1.13763998261864        1.24291604549363       -2.07159825581375
C            0.23005967220381        1.16297635869514       -1.60497773338041
N            0.74845310032344        0.10731187404504       -0.93090313110249
C            2.10766697823220        0.12901246377670       -0.44384845479664
C            3.07192545420461       -0.61426453793196       -1.38633518934115
C            4.48824392695946       -0.49770515083722       -0.89743765979009
C            5.21105184934182        0.66087800893636       -1.10713677913969
C            6.50724201939389        0.78813397434556       -0.62553021463720
C            7.10469108102489       -0.24733283960533        0.07044859841570
O            8.36751676259048       -0.23636372948254        0.57119710173008
C            9.16073351442883        0.90629426115885        0.36174736668854
C            6.37223422515583       -1.43687329719140        0.29473713756738
O            7.03804910682825       -2.40362436935532        0.98069302467565
C            6.40367030583742       -3.63949863124581        1.19392132628516
C            5.07819507233330       -1.53959161536470       -0.18362966520160
C            0.01598683212516       -1.11703185813818       -0.73310453012326
C           -4.74016147511384        3.39356158144973        1.05667304644324
C           -4.81715833235714        2.44153008324176        2.17142737552178
C           -3.81418139796824        4.54367104183441        0.93430679422962
H           -4.17389550349014        0.70590212246560       -1.55767913964270
H           -6.31455736039611        0.23956582653878       -2.23191199086153
H           -6.76607954511909       -1.28729798779816       -3.04801177780271
H           -5.11819906758740       -0.65646526403634       -3.20633702974168
H           -5.45819033005958       -3.32742990856825        2.69067800169191
H           -5.87849226610964       -4.65870652235585        1.58008114034565
H           -4.17037466764907       -4.22832305151797        1.84800341386389
H           -3.45927345164835       -2.04383526508939        2.45137397294385
H           -2.27095150854455        0.04972499504596        2.21208174897802
H           -2.96131638791577        2.33387404615461       -1.82522827819446
H           -1.52643770470640        3.18221101995028       -1.21881793953262
H           -1.61854966084578        0.27022194107684       -2.09431057680845
H           -1.17995841570354        1.68213326410734       -3.06079102751268
H           -0.57287446104725        2.73438786530564        0.58960175627551
H            0.87177718987614        2.02239672036591       -1.69016147655169
H            2.17401530767076       -0.32118886850660        0.55296538382525
H            2.42357047825702        1.16212854836128       -0.33604966913978
H            2.97424795734680       -0.16021786085897       -2.37259275532749
H            2.78451593359907       -1.66384754235306       -1.45941243496155
H            4.77013378480195        1.47704537401498       -1.65873643999568
H            7.04826168419688        1.70315915824338       -0.80808558654308
H            8.71950158521412        1.79239560576453        0.82914710907792
H            9.31516400510048        1.09662413617433       -0.70549527011409
H           10.11966663439084        0.69086997995546        0.83428319535485
H            7.13315922286723       -4.25623132125079        1.71969860138807
H            5.51125457881321       -3.53171556613839        1.81811583594294
H            6.12958145599274       -4.11886782803610        0.24753930208077
H            4.50860777208077       -2.43997640953284       -0.01461827458104
H           -0.19080476880493       -1.58978733584783       -1.69623932381726
H           -0.93015920249724       -0.95425989380048       -0.20768252693913
H            0.60922181823152       -1.79406076798381       -0.11899102925118
H           -5.68918417094342        3.55807669703490        0.57780816167190
H           -3.87554033127130        2.15506466416417        2.62671021118553
H           -5.32700813398035        1.54842511573798        1.81948859237796
H           -5.46568293206688        2.91115419594638        2.92077043405611
H           -2.86221914120924        4.30689090832512        1.36956742125896
H           -3.69267604621496        4.85658019513875       -0.11583393360037
H           -4.27068570940424        5.36714393880439        1.49908653230794
H           -0.55861836414327        2.22073897877945        2.79699841189161
