72
 energy: 0.874888656353 xtb: 6.6.1 (8d0f1dd)
N           -1.56015786483096        2.57000204226510        2.37556408177947
C           -1.59173346853285        2.20310849300467        1.16607908491141
C           -2.79287028929313        2.07589881789358        0.24763985120325
C           -3.27490712304118        0.63709181091631        0.32897703878005
C           -4.22707583474337        0.21350711588508       -0.60559340935144
C           -4.81449222002723       -1.03276889111277       -0.53417057303646
O           -5.77318436736750       -1.51200527873017       -1.37768117263224
C           -6.28276169635311       -0.64832873356656       -2.35871960624058
C           -4.43385239211219       -1.92255964730954        0.49013742453593
O           -5.07780355602290       -3.12431462986959        0.47343633867288
C           -4.80373730460845       -4.03396002460103        1.50383847565374
C           -3.47464407344964       -1.51861967987669        1.39738428065357
C           -2.90585718592518       -0.25011957192483        1.32180311624602
C           -2.21076783910316        2.30725384371745       -1.20126491591810
C           -1.25406868769664        1.21386319325970       -1.76304548686258
C            0.05572922168240        1.17115419611992       -1.05740484466603
N            0.67722893889445       -0.01379497130352       -0.65949791307846
C            2.03749328669528        0.00350323067218       -0.23497312633460
C            2.97747579816106       -0.56264808599750       -1.31286405732334
C            4.39580792083835       -0.45147391766379       -0.86046537300992
C            5.11302935018090        0.71299282322100       -1.06152045871487
C            6.41927745300698        0.82830266545890       -0.60777099517949
C            7.02648933535963       -0.21959213574467        0.06188919322821
O            8.30271575468907       -0.21876888699005        0.54045204765680
C            9.09347737811085        0.92175669339534        0.33107664760837
C            6.29809998765501       -1.40881324228896        0.28487463268448
O            6.97631083935538       -2.38952947481318        0.94578875035106
C            6.33913239721660       -3.62082496266969        1.16407043014373
C            4.99684422584697       -1.50451167618020       -0.17105297327997
C           -0.02472827934975       -1.26217660397682       -0.64759012102037
C           -4.03149481497635        3.07997112718111        0.66268112707413
C           -4.58253932089061        2.68253479305303        2.01357292087326
C           -3.50782859140082        4.52209924584548        0.64624843089165
H           -4.53129580334313        0.89158446433022       -1.38539658805116
H           -6.70750065569562        0.25979398819483       -1.91715458637531
H           -7.06559207929615       -1.21070434000210       -2.86401919963735
H           -5.51577509290596       -0.36701323571136       -3.08616469800707
H           -5.03598517917502       -3.61082020640864        2.48678993413428
H           -5.44835317151393       -4.89037564289553        1.31345888237261
H           -3.75729717959524       -4.35328517941618        1.48764708553996
H           -3.16988394882350       -2.17605235457496        2.19582957369069
H           -2.17873469919560        0.03202606373441        2.06696885649399
H           -3.04797676938959        2.42666925460701       -1.88984854702989
H           -1.62863270382515        3.23033236686306       -1.20510313476873
H           -1.74759038281420        0.24396267558113       -1.73588033241606
H           -1.07536934584305        1.44830431006675       -2.82363501603437
H           -0.65577621663738        1.93272880731749        0.62059829534066
H            0.71349985266472        2.01439236424791       -1.13556356548546
H            2.15878619252220       -0.57531425628668        0.68912681348990
H            2.32746582041454        1.03132847122403       -0.01318792827333
H            2.82041323392755        0.00864493871656       -2.22825318537295
H            2.70990589705647       -1.60288800658381       -1.50414887551989
H            4.66055072761615        1.53922355928253       -1.58830968422116
H            6.95823309814484        1.74428005758470       -0.79166130737828
H            8.66900128139387        1.80534971534751        0.81969462623911
H            9.23085615989030        1.12910092036587       -0.73579600221757
H           10.05939988726361        0.69359815230088        0.77969074753777
H            7.07416050386956       -4.24436678206125        1.67236161793351
H            5.45667377917279       -3.51383366265569        1.80333808452290
H            6.04846276057789       -4.09948283233594        0.22251876292169
H            4.43036131669812       -2.40850974845586       -0.00841800793625
H           -0.20799724073385       -1.64952076573183       -1.66005210418009
H           -0.98977564536520       -1.16536415276225       -0.13706549818966
H            0.57223868250522       -1.98744395032145       -0.09831748544491
H           -4.89495635277198        3.07343103631219       -0.01770994072146
H           -3.77916825592706        2.69172071949278        2.73534562304040
H           -4.99669587959407        1.68341865340769        1.94286765245948
H           -5.38377552705211        3.34827742343723        2.33435403295136
H           -2.65245093655960        4.58808595855652        1.30687087393480
H           -3.21795696318342        4.81871574114918       -0.36229659539907
H           -4.26090112407982        5.23247867800384        0.99143374310388
H           -0.60911167260749        2.61517421971074        2.75690680758744
