72
 energy: 18.891570840144 xtb: 6.6.1 (8d0f1dd)
N           -1.52648294669811        2.39453190238753        2.37690167098077
C           -1.55983660846914        2.25260017055206        1.12430687713696
C           -2.75224961333944        2.03737960254123        0.22596682950797
C           -3.24094416850592        0.61529507372795        0.33100143206362
C           -4.16877674459555        0.18723542677674       -0.62786444000473
C           -4.78911147162384       -1.03978804300918       -0.53468330592404
O           -5.73843498280568       -1.52440002692191       -1.38574304403670
C           -6.19708219938625       -0.67633676761199       -2.40382364241330
C           -4.46190984530105       -1.90624889969306        0.52520468172253
O           -5.14326452987041       -3.08984292007341        0.51899415530618
C           -4.91051121696612       -3.98163097478561        1.57280310936275
C           -3.51635096389955       -1.50143547856849        1.44599242483342
C           -2.92149268977356       -0.24649747967306        1.35892098043671
C           -2.19326142430913        2.29646302653573       -1.21795592722770
C           -1.23601909013512        1.23377348443920       -1.84711315457315
C            0.09840093532609        1.19920461899225       -1.19108050253364
N            0.70822206246261        0.01529431269286       -0.74051010874154
C            2.06258257359971        0.03429253774940       -0.29236871280638
C            3.00943749141968       -0.58021884908299       -1.33363131303091
C            4.42409813342361       -0.46724556990904       -0.87270070192767
C            5.14162725392748        0.69725164040827       -1.07205296622785
C            6.44435787357248        0.81697376531183       -0.60890556203942
C            7.04955736439874       -0.22843567549741        0.06690895539799
O            8.32456264635946       -0.22502442472080        0.55010223332737
C            9.11307774719926        0.91624759974288        0.33874284256979
C            6.32038459755855       -1.41610606622485        0.29008653646496
O            6.99560178072913       -2.39547767275170        0.95696718557998
C            6.35796170498728       -3.62679505550641        1.17175763626580
C            5.02141548612787       -1.51492502219109       -0.17338275315529
C           -0.00685275537044       -1.22481581579154       -0.66742623746865
C           -4.16282359226438        3.10756657267509        0.73441428933200
C           -4.64321847609640        2.61477718889116        2.06761970054570
C           -3.59231806869328        4.52464324176932        0.71968600744720
H           -4.43251617573675        0.84925418792694       -1.43618779463678
H           -6.59756059320689        0.26127357843215       -1.99980904256255
H           -6.98394727356058       -1.22832174502042       -2.91346882196110
H           -5.40374898881993       -0.44346320140730       -3.11843141853172
H           -5.15114114944303       -3.53291556206225        2.54291925826173
H           -5.56735683246515       -4.82969848639938        1.38695789259970
H           -3.87021199026673       -4.31707724046248        1.58281571582280
H           -3.24586682202060       -2.14391521509162        2.26793022343639
H           -2.20341669740377        0.03973565624446        2.10982024958927
H           -3.03501417022369        2.41458437554123       -1.88886263456199
H           -1.61935537226628        3.22457877228369       -1.21341128272285
H           -1.70073264546266        0.24801719272961       -1.82792455332737
H           -1.12370458281208        1.50381550289665       -2.90758886881537
H           -0.61387708911280        2.14126666959065        0.54560439752324
H            0.76742865584575        2.02674421599957       -1.28620811791200
H            2.18099706913758       -0.50421008997644        0.65915936884509
H            2.34881231802213        1.06839007352656       -0.10396108543849
H            2.86263721723996       -0.03931197235678       -2.26835896709862
H            2.73054529733696       -1.62341205934426       -1.49107083859644
H            4.69019327601923        1.51930402123326       -1.60488830093728
H            6.98372511066642        1.73332911840996       -0.79093897208243
H            8.68341090843989        1.80119012640173        0.82072444184413
H            9.25394068811452        1.11929893953413       -0.72867393794060
H           10.07904358192378        0.69492822443937        0.79182573611731
H            7.09100578360877       -4.25100852119998        1.68349889531947
H            5.47216623654234       -3.52035813303089        1.80638013399787
H            6.07086592190253       -4.10472740596466        0.22860968404514
H            4.45330777923436       -2.41701200953705       -0.00705814255692
H           -0.19634689302560       -1.64821560363473       -1.66144916156036
H           -0.97002232171168       -1.10468967535457       -0.15419367947791
H            0.58105760165398       -1.93396531968164       -0.08761237125561
H           -5.08279649660179        3.16641974870394        0.12003707258898
H           -3.80050660433187        2.53277729553814        2.73953993983372
H           -5.08675708291786        1.63820861422184        1.91487695336815
H           -5.42109371803869        3.25772862500072        2.49570769438287
H           -2.70290706421561        4.52296792021527        1.33449564549434
H           -3.35170614104691        4.82231222334408       -0.30572504230660
H           -4.28398576148054        5.27286242586964        1.12475828285964
H           -0.58657864443061        2.49870512486169        2.75936667684731
