72
 energy: 5.257821523273 xtb: 6.6.1 (8d0f1dd)
N           -1.54329755729517        2.52329474539997        2.37982181534441
C           -1.58428025847381        2.22554561871699        1.15324399006542
C           -2.78730380616061        2.06520913690262        0.24323136484165
C           -3.26891416281554        0.62914865246652        0.33473158801200
C           -4.20850527070903        0.20406132746178       -0.61173947434029
C           -4.80625401277498       -1.03610089325795       -0.53420373239217
O           -5.76153529154404       -1.51785596061955       -1.38053793326041
C           -6.25379145225843       -0.65790469847544       -2.37310812981148
C           -4.44292157762949       -1.91777199367768        0.50220879573511
O           -5.09977276761124       -3.11303835129005        0.48848377004789
C           -4.83988494463048       -4.01663565156395        1.52667803533922
C           -3.48821437067862       -1.51420278785051        1.41425360816870
C           -2.91128705170116       -0.25005168995336        1.33628797847810
C           -2.21047052915953        2.30576511502050       -1.20810234173583
C           -1.24963793186486        1.22163262406258       -1.78995501814020
C            0.06939716070331        1.18042293412029       -1.10077214872697
N            0.68853067196099       -0.00537885694827       -0.68638155754536
C            2.04630396327135        0.01351209540857       -0.25374403830900
C            2.98837132804007       -0.56879861476767       -1.32004622118246
C            4.40537733923653       -0.45679437793093       -0.86487215858444
C            5.12264963293841        0.70773075882674       -1.06530333318658
C            6.42770227849716        0.82438682434648       -0.60827676431047
C            7.03410860251786       -0.22275287860651        0.06347844976117
O            8.30995209190085       -0.22100335524306        0.54367328524935
C            9.09994993959822        0.91980258013750        0.33352251407748
C            6.30543711703308       -1.41138735137078        0.28659786649226
O            6.98262798498874       -2.39164401818929        0.94956832109935
C            6.34529133889054       -3.62296888441709        1.16671375018376
C            5.00497614084993       -1.50799278681659       -0.17189639797653
C           -0.01817187118502       -1.25108121026454       -0.65375274640701
C           -4.06962178790163        3.07934942500191        0.68545050483963
C           -4.60250831339843        2.65808691070500        2.03122114308973
C           -3.53656843939057        4.52014435682612        0.67072054823413
H           -4.49800657630232        0.87726488817155       -1.40136695141813
H           -6.66990308631783        0.26050554037780       -1.94392929331427
H           -7.03827813799442       -1.21589818015027       -2.87999540292075
H           -5.47818111848434       -0.39259890461211       -3.09676116955647
H           -5.07463920452728       -3.58450325681523        2.50527303959951
H           -5.48899290072792       -4.86988057945745        1.33776831874834
H           -3.79549788402946       -4.34141258945407        1.51896356731214
H           -3.19416691346092       -2.16675591199897        2.22007283304601
H           -2.18650197082611        0.03399796550619        2.08246869062713
H           -3.04678642093504        2.42910391397194       -1.89114851611508
H           -1.62825438800562        3.22663076238332       -1.20877725409826
H           -1.73245877593605        0.24609252803327       -1.76592917207411
H           -1.09139075379794        1.46736183616447       -2.85130183563806
H           -0.64209837174772        2.00321691186179        0.60087373359741
H            0.73095121970250        2.01893517472037       -1.18516808493118
H            2.16784966483956       -0.55152246806771        0.68010692925448
H            2.33487066359945        1.04360778738585       -0.04379953954074
H            2.83430915133391       -0.00743231442211       -2.24182103127890
H            2.71699729572200       -1.61017164395545       -1.49986014273852
H            4.67055613695137        1.53262157819144       -1.59412344342541
H            6.96685763825816        1.74050892569069       -0.79135008237823
H            8.67372614111835        1.80384810372072        0.81989800565508
H            9.23834341824971        1.12564422386851       -0.73355415089399
H           10.06592655166279        0.69395640327516        0.78356674506359
H            7.07964362066805       -4.24676154181097        1.67613109005796
H            5.46174865496513       -3.51611522203131        1.80445873667357
H            6.05567624414205       -4.10130479979186        0.22463641061027
H            4.43784290131841       -2.41130091547582       -0.00797383409916
H           -0.20364047553856       -1.65598969413456       -1.65983349728929
H           -0.98294010021239       -1.14506990466713       -0.14330343714513
H            0.57505024961518       -1.97035343893663       -0.09192176253760
H           -4.95528470454506        3.10142713610599        0.02727744797297
H           -3.78436290428922        2.63710349128181        2.73462459509664
H           -5.02781838602797        1.66669255040694        1.93275202284488
H           -5.39554825043932        3.31913089947155        2.38601237176434
H           -2.66695737655749        4.56388732823897        1.31306829055815
H           -3.26480762736798        4.82003208466965       -0.34339253397149
H           -4.26847191550556        5.24446041251487        1.03771449549766
H           -0.59452530708315        2.57599958365599        2.75614932741602
