72
 energy: 50.500447509979 xtb: 6.6.1 (8d0f1dd)
N           -1.24370925704361        1.67367687332452        2.28278547471982
C           -1.28054250251686        2.09615682609485        1.07366459585277
C           -2.16869266289194        1.62645708995138        0.08585648913556
C           -3.00609893266247        0.47065885467124        0.28138793658019
C           -3.92524535433192        0.04142586005200       -0.70292054917653
C           -4.69774201231381       -1.08568947667861       -0.53165957473102
O           -5.60883046609618       -1.56509108048320       -1.44280549165240
C           -5.85753006293365       -0.80849973248079       -2.59186427077924
C           -4.58856799280412       -1.84568799928573        0.64829716749469
O           -5.39268353988523       -2.95223313071042        0.70808179460441
C           -5.32239974248103       -3.75918159364612        1.84968190718193
C           -3.69805572685330       -1.43270579272582        1.62179254991451
C           -2.94805828227383       -0.28944648397077        1.45772486101497
C           -1.98883116493013        2.19199572020626       -1.24847728415731
C           -1.09993403471095        1.24014305210926       -2.19836165357861
C            0.27410745381871        1.10991632692403       -1.78495279574294
N            0.75659183563662        0.15995510597899       -0.97291297679550
C            2.11889762912591        0.17988434170088       -0.51845903037456
C            3.09348348884516       -0.61167967296231       -1.42303854547365
C            4.50663592424712       -0.49922391864205       -0.92279342259485
C            5.23885690912265        0.65301278806774       -1.13526578370437
C            6.53186357466167        0.78095755302983       -0.64720392823408
C            7.12010419354322       -0.24989829328369        0.06179870444040
O            8.37939797693330       -0.23608939293439        0.58208809151310
C            9.17443855875653        0.90277370709131        0.37885751068144
C            6.38359098788195       -1.43556402812170        0.28480715014821
O            7.04232034135462       -2.39901082599222        0.98529111573103
C            6.40531041212619       -3.63073287425818        1.20621770119011
C            5.09282432421421       -1.54031003632239       -0.20291784678456
C            0.02810545578831       -1.06592800370336       -0.75963648972037
C           -4.97628690995422        3.54436850904491        1.20888716728357
C           -4.93493896258538        2.43800432156874        2.18541207633792
C           -3.92721777664787        4.57442389059494        1.03004980408072
H           -4.04919794754151        0.61954271170651       -1.60441649613358
H           -6.17883598758983        0.21195485147523       -2.35126767231420
H           -6.65782146226002       -1.32679271291028       -3.11745303283953
H           -4.98039903552717       -0.76415552393978       -3.24716555217856
H           -5.60842979045126       -3.21993963902911        2.76161893984054
H           -6.03175794199932       -4.56748491227223        1.67570232004462
H           -4.32069609612032       -4.18128163773299        1.98337514473691
H           -3.57267879290108       -1.99469836927169        2.53195888428489
H           -2.28897767550617        0.02848677893914        2.24574051655265
H           -2.92406039083931        2.29896114358838       -1.79201377017736
H           -1.47550508797643        3.15166690904196       -1.21848569960644
H           -1.62085528637160        0.28688770643469       -2.23495419415169
H           -1.14020652837542        1.73958227201293       -3.16088003117294
H           -0.61432116659544        2.92251088684862        0.70692193478184
H            0.91337981057452        1.96835813678872       -1.87158981626470
H            2.15465309263664       -0.24101800720702        0.49081903900553
H            2.45577788729566        1.21101966575126       -0.44585250250403
H            3.02389570686547       -0.20651057069692       -2.43129784441767
H            2.79280749875253       -1.65901621568998       -1.45737464704523
H            4.80635159894871        1.46780918997088       -1.69468323929544
H            7.07284326389312        1.69458840512204       -0.83500234724802
H            8.73335274258563        1.79488616118356        0.83720558354239
H            9.34528080926791        1.09075164943825       -0.68791859527522
H           10.12429588463662        0.68520291950356        0.86594545766404
H            7.12943953776434       -4.24063270955275        1.74519414833488
H            5.50252822713999       -3.51717566996177        1.81825367171862
H            6.14883957282070       -4.12659984041627        0.26262014699044
H            4.52799558818586       -2.44430990353875       -0.03364779961323
H           -0.18031862379155       -1.55834287291651       -1.71583256494805
H           -0.91634211308541       -0.88386779021719       -0.23687012300672
H            0.62540533635920       -1.73342530214706       -0.14141781975217
H           -5.94613428340925        3.77049134142721        0.78780797014880
H           -3.92661340299509        2.14799157968488        2.45872657641297
H           -5.45003258380800        1.57333212407637        1.76603569123804
H           -5.49153811013632        2.73435067861919        3.08256009537401
H           -2.97532068947973        4.21329316091717        1.38375746156955
H           -3.83911764137480        4.88556032632624       -0.01958666370084
H           -4.20521532075291        5.47532779456898        1.60343082597892
H           -0.51604478569639        2.08911985626814        2.85163021749456
