72
 energy: -4.437108992268 xtb: 6.6.1 (8d0f1dd)
N           -1.52692478016307        2.67786964828492        2.31608403150416
C           -1.56547858488214        2.17866898246849        1.16163538527079
C           -2.78311429382602        2.08860987488744        0.25520527685763
C           -3.29592053540789        0.64904043953221        0.32810464650927
C           -4.26469934288746        0.23178164784298       -0.59041605827769
C           -4.83077858003965       -1.02650071262455       -0.53274497016984
O           -5.79545600335706       -1.49988762053280       -1.37164617983127
C           -6.33967088055309       -0.62865977572244       -2.32818461135672
C           -4.41557101783166       -1.93208061401354        0.46664455743151
O           -5.03399401513458       -3.14623318619860        0.44267948690369
C           -4.73282197361138       -4.06805376470196        1.45680445724630
C           -3.44775156215894       -1.52931059250397        1.36571162132441
C           -2.89635434075962       -0.25261037498829        1.29810586536766
C           -2.20706742056137        2.30426138501687       -1.18889148153439
C           -1.25968689363887        1.19728123708102       -1.71158326026542
C            0.02994020080356        1.15102639921451       -0.97301113171085
N            0.65493136334150       -0.03023031625269       -0.60731724240248
C            2.01997605100548       -0.01640016530061       -0.19697882346993
C            2.95557877598045       -0.55093094925009       -1.29768806845491
C            4.37676358727756       -0.44140730580411       -0.85047202861394
C            5.09383231598545        0.72300769738776       -1.05316489679605
C            6.40253828473955        0.83577534414928       -0.60649947281135
C            7.01129980952526       -0.21375984391113        0.05877092138170
O            8.28837096139475       -0.21462748141662        0.53397410410989
C            9.08056166428818        0.92541706063752        0.32592888405380
C            6.28356954233035       -1.40416875450481        0.28157302954844
O            6.96401144749474       -2.38569241110618        0.93820983234345
C            6.32721497192814       -3.61695137912120        1.15885473657228
C            4.98056313068538       -1.49821293511675       -0.16851815724222
C           -0.03756664360600       -1.28352056410246       -0.63574202984716
C           -3.95294324392650        3.08252151228644        0.62398760708195
C           -4.54108080628808        2.72984528181407        1.97948045023373
C           -3.45130751328086        4.52712244843879        0.59906964689145
H           -4.59524804528606        0.91917013196050       -1.35131476695812
H           -6.78033877833144        0.25883132399988       -1.86211152072478
H           -7.11978366697489       -1.19889151737869       -2.83005218598830
H           -5.59151319740124       -0.31640377892522       -3.06399716848916
H           -4.95941805952705       -3.66370107468299        2.44876439489606
H           -5.36918101690653       -4.93006395834153        1.26300533074102
H           -3.68286044109891       -4.37734767515598        1.42345470499678
H           -3.12008724083792       -2.19637960953747        2.14755580842455
H           -2.16252935387239        0.02856755248549        2.03761147089328
H           -3.04065508694169        2.40297968106992       -1.88351063301746
H           -1.64211353361456        3.23899588841378       -1.20369135496163
H           -1.77619620340554        0.23971899943297       -1.67821662776815
H           -1.04133549212057        1.41239795870562       -2.76821713075289
H           -0.66602022612999        1.78916441096824        0.62899608450667
H            0.67891369394894        2.00461285194554       -1.03786122608556
H            2.14116858092443       -0.62262172594508        0.70751570271579
H            2.31384397062814        1.00623200398291        0.04825495418717
H            2.79250821775451        0.03987697395833       -2.20022102102174
H            2.69536879732115       -1.58853213108505       -1.51176514077767
H            4.64063412889983        1.55172984217809       -1.57638709103424
H            6.94105191537473        1.75148937424295       -0.79197357610419
H            8.65949146967496        1.80814037862057        0.81893370148374
H            9.21575148919394        1.13562018488227       -0.74056493568131
H           10.04648387010557        0.69278218512764        0.77152441647642
H            7.06375226059613       -4.23989891356413        1.66469633639832
H            5.44702115269707       -3.50968562344682        1.80134343905889
H            6.03423009688105       -4.09621387700495        0.21840358648120
H            4.41538387013408       -2.40361533898992       -0.00865974973200
H           -0.21461437213463       -1.63377625358105       -1.66060279452582
H           -1.00318513848727       -1.20508101724547       -0.12517608279102
H            0.56708658110830       -2.02038398934512       -0.11248696363808
H           -4.77122380748300        3.01569371501774       -0.10179084155757
H           -3.76770318486845        2.79827428302732        2.73311226612077
H           -4.93431181648602        1.71805655177837        1.96128659222931
H           -5.35737980152981        3.40345359503802        2.23053144912150
H           -2.62578722393598        4.63761933346162        1.29351468614152
H           -3.12648241815246        4.81625690399633       -0.39854399932991
H           -4.24421356507545        5.20972970158292        0.89895420489336
H           -0.60095111795951        2.69450712894151        2.74725501271856
