72
 energy: 50.219036728786 xtb: 6.6.1 (8d0f1dd)
N           -1.20645755281889        1.63485100659194        2.27400896728220
C           -1.26826953120828        2.09525912246684        1.07508929097675
C           -2.14014412718630        1.60334520183685        0.07997316407723
C           -2.98895616618774        0.45466041229883        0.28012830434514
C           -3.90693406511815        0.02784784890397       -0.70610757821890
C           -4.69159246000078       -1.09126500499003       -0.53145766648258
O           -5.59942791927621       -1.56608568373837       -1.44657393370794
C           -5.82938654604266       -0.82099004679142       -2.60766800269897
C           -4.60079728257169       -1.84190028349506        0.65722024891966
O           -5.41288293074655       -2.94301576663804        0.72443451075807
C           -5.35542212616926       -3.74041066469287        1.87359485050169
C           -3.71274937283270       -1.42788178951612        1.63342917348935
C           -2.94197182658918       -0.29889327383028        1.46082509051853
C           -1.97338115269009        2.17765758095341       -1.25116467312912
C           -1.08594631504597        1.22803525423809       -2.22330447236806
C            0.28881005991528        1.09409173306295       -1.82551260398299
N            0.75104875550822        0.16964919399480       -0.96488327656646
C            2.12313695083538        0.19028690253277       -0.53493065252154
C            3.09359008573692       -0.60949497981129       -1.43506880798708
C            4.50469204578322       -0.49609422171708       -0.92728256388224
C            5.24208090798351        0.65280445036561       -1.14466035845047
C            6.53435130338225        0.78093746750974       -0.65511820953907
C            7.11818165043452       -0.24883341704426        0.05855877353181
O            8.37580513895003       -0.23557030086238        0.58104711773734
C            9.17423470521923        0.90348860706766        0.38337101847338
C            6.37926055540779       -1.43290514126835        0.28147323240081
O            7.03646270569014       -2.39655806261571        0.98340267317548
C            6.39970717181485       -3.62757105263533        1.20837705935010
C            5.08892996186614       -1.53702952681396       -0.20722150863549
C            0.02725653516622       -1.06230942275608       -0.76359363081867
C           -5.03076142247725        3.58533803891780        1.24740468150635
C           -4.96902140039899        2.44941360192251        2.18894075342734
C           -3.95830414886518        4.58723442575765        1.04638148006244
H           -4.01915090291246        0.59695110081469       -1.61507542054020
H           -6.14483594306980        0.20460906850496       -2.38229733521819
H           -6.63065851753519       -1.33618636114816       -3.13559186140867
H           -4.94551788057384       -0.79167604799774       -3.25573187240628
H           -5.64485601266829       -3.19131719860229        2.77861166736911
H           -6.06940278517616       -4.54547198725712        1.70245441427959
H           -4.35777472586947       -4.17005160163083        2.01847213124589
H           -3.60031845072594       -1.98301565283701        2.54980869644434
H           -2.27780850594528        0.01646901669099        2.24561656289620
H           -2.91441794342815        2.28745738975455       -1.78481298295180
H           -1.46548600256510        3.13996563643663       -1.21767268677020
H           -1.61351931583819        0.27807670618650       -2.26511561892380
H           -1.12330074024677        1.73800400106077       -3.18347434842391
H           -0.61715917051170        2.96259512518036        0.72377964559488
H            0.92685370630852        1.95312385217645       -1.92271967505895
H            2.16085023124669       -0.22207070996090        0.47633946103452
H            2.46318453147002        1.22190712978118       -0.47371018001466
H            3.03537339644162       -0.21444277156607       -2.44778183342934
H            2.78669019422218       -1.65538205163184       -1.46185921726876
H            4.81312568040143        1.46743109776861       -1.70634109579843
H            7.07791644952286        1.69307279271707       -0.84284539664962
H            8.73168659279740        1.79561327874097        0.84041553565069
H            9.35150938732738        1.09217869562251       -0.68242962001062
H           10.12190048748353        0.68513832172626        0.87441039608555
H            7.12389799511257       -4.23593010533930        1.74904829719294
H            5.49686850054285       -3.51331778986402        1.81948132365018
H            6.14499130317258       -4.12746626697557        0.26738233270571
H            4.52464942689031       -2.44132071793075       -0.03948053068171
H           -0.17730876955592       -1.55838114625490       -1.72134585660007
H           -0.91736070678168       -0.87154322124745       -0.24564517397699
H            0.62747861615600       -1.72379888042618       -0.14572578544085
H           -6.00519688481273        3.82518354151720        0.84411019960461
H           -3.94727873854405        2.18344864692983        2.43468274191145
H           -5.47170953093486        1.58378214480845        1.74615017281779
H           -5.51274853006985        2.69438745619933        3.11367730236225
H           -3.00948717716628        4.19961655437549        1.38997454788883
H           -3.87821732220852        4.88413131746198       -0.00540206241025
H           -4.19527463901198        5.51372889475665        1.60274282559942
H           -0.49683510725763        2.09484026437852        2.83887190473254
