  25
        -42.04872933
 C          5.3864605931       -0.4296714364       -0.0746264477
 N          2.0449040477        0.4849399961        0.0289584049
 C          2.5002323904       -0.7538159441        0.0235811763
 N          1.4538335685       -1.6007474361        0.0107640810
 C          0.2981949217       -0.8642223202        0.0085873070
 C          0.6796384414        0.4640247219        0.0196420092
 C         -0.2771276216        1.5545072103        0.0148123337
 O          0.0022728834        2.7251450734        0.0214332556
 N         -1.5788033718        1.0603359385       -0.0008163918
 C         -2.6640912592        2.0348996118       -0.0099690863
 C         -1.9931810514       -0.2607465760       -0.0066187058
 O         -3.1481492528       -0.5740021860       -0.0157261083
 N         -0.9830259363       -1.2570268797       -0.0027214880
 C         -1.3731717442       -2.6533722549       -0.0130052494
 H          5.9058492834        0.0764112777        0.7399786408
 H          6.0847251657       -0.7521790600       -0.8484785781
 H          2.5971867335        1.3336028168        0.0382588883
 H          3.5948854866       -0.9552779689        0.0030618989
 H         -2.2234024064        3.0283690803       -0.0168252423
 H         -3.2831545578        1.8883294132       -0.8939022869
 H         -3.2862341032        1.9028581203        0.8741676966
 H         -1.0067079945       -3.1596948447        0.8801436511
 H         -0.9985039698       -3.1488996622       -0.9088291624
 H         -2.4620333604       -2.6865863501       -0.0181999689
 H          1.5244413030       -2.6092895939        0.0052047962
