72
 energy: 97.455009178195 xtb: 6.6.1 (8d0f1dd)
N           -1.70590606526251        3.18105744344446        2.03475837594158
C           -1.61092838883886        2.38995663783175        1.06956847730633
C           -2.74817150757139        2.16835163527162        0.09885278240715
C           -3.29115485129856        0.75334551517753        0.20555959901307
C           -4.25026422578002        0.32949633999774       -0.71622602071267
C           -4.82468624365602       -0.92210371850037       -0.62428914390881
O           -5.76514116825826       -1.41999170029004       -1.47999367397523
C           -6.23831654393274       -0.60489389718351       -2.52017687752653
C           -4.44103540795383       -1.78569109603568        0.42641491356893
O           -5.07501931004488       -2.99038391300969        0.45218974941309
C           -4.80647629711344       -3.84648982646361        1.53004788282886
C           -3.49234230940244       -1.36271371731184        1.33783937010655
C           -2.92083272483450       -0.10150278902895        1.22354987944146
C           -2.09693935253796        2.35323933954423       -1.33501646600118
C           -1.20981379947753        1.16273566035749       -1.80505087674181
C            0.12332560219593        1.06917165548595       -1.16693056145870
N            0.65233802856371       -0.04471356124131       -0.58561177410432
C            2.04029569898184       -0.05702314471858       -0.20750444263028
C            2.98711493195426       -0.61650337786026       -1.29330000805041
C            4.41547708118818       -0.49943714557976       -0.84900517954347
C            5.12614684315961        0.66830788601023       -1.05551739108410
C            6.43777319365378        0.79035483517095       -0.61615036351336
C            7.06085389750430       -0.25421873985735        0.04358207596706
O            8.33739956541589       -0.24253983677009        0.51739789308960
C            9.11982819287953        0.90585131560362        0.31344669715155
C            6.34335404520001       -1.45184344100230        0.26571838405447
O            7.03613310279287       -2.42537836864906        0.91945540661646
C            6.41653118186134       -3.66482794830119        1.14465446835384
C            5.03597774850834       -1.55362049946415       -0.17652231336122
C           -0.02499517092088       -1.31473697785208       -0.64216229241072
C           -3.88573185402250        3.09805131565834        0.43443258683372
C           -4.67168666926443        2.03036270311169        3.00246400179675
C           -3.65470821019096        4.56595734532540        0.28700490880372
H           -4.55609904400323        1.00186536680601       -1.50104691506731
H           -6.71453022243929        0.30596503377789       -2.14217305559617
H           -6.98068326056398       -1.20529698318016       -3.04519070795725
H           -5.43950697303070       -0.33220395819530       -3.21857027231082
H           -5.05593508795607       -3.37952612324984        2.48884827082937
H           -5.44376268250580       -4.71438614205196        1.37532575066269
H           -3.75747268744267       -4.16295463276212        1.54678079881792
H           -3.19452386791317       -1.98827461115686        2.16289686042239
H           -2.19863129292872        0.21848989262890        1.95767472089553
H           -2.89587180233231        2.49028489770604       -2.06722117409335
H           -1.48246593794826        3.25335579369020       -1.34187632934515
H           -1.76435293437957        0.23062324216832       -1.70267994814554
H           -1.03452869738693        1.31852224281852       -2.87844919877097
H           -0.70708140000407        1.81153427448129        0.80366529090141
H            0.74369790186279        1.95140817757439       -1.13612299908202
H            2.15166171363834       -0.65599094798705        0.69977205024462
H            2.34981624521683        0.96413896108055        0.02092063164823
H            2.83474455044201       -0.05204222791749       -2.21338820479141
H            2.73585125330410       -1.66149996154486       -1.48669115956839
H            4.66175147869291        1.49389220450832       -1.57383466779346
H            6.96684894658919        1.71142619679872       -0.80061623654906
H            8.68808938178517        1.78069416736840        0.81065594460553
H            9.25437498071050        1.12363140886937       -0.75169832935482
H           10.08852353735123        0.68339344896578        0.75832112066538
H            7.16457521526813       -4.27984213847044        1.64376523780038
H            5.54044479730441       -3.56626654333782        1.79425795640467
H            6.12230151443619       -4.14853483740736        0.20686896895726
H            4.48400853594086       -2.46772150237617       -0.01487016932989
H           -0.13608038289556       -1.70104711504013       -1.66282987342166
H           -1.01671462517743       -1.22086833290415       -0.19515376718842
H            0.54358464279887       -2.04025184274011       -0.06332410658029
H           -4.90285002035752        2.72869408358192        0.31839453388666
H           -3.73025071812347        2.27270725145920        3.44174839586232
H           -4.86921655181577        0.98665182365200        2.89838330865240
H           -5.48668214813193        2.59566488582906        3.38404009796814
H           -3.37327705565652        5.04399128359367        1.23281872502889
H           -2.79255557754186        4.78178463159646       -0.38067995737442
H           -4.55707272484929        5.04750372492794       -0.07011116874204
H           -0.87613446595225        3.31683507760464        2.60283013069960
