72
 energy: 103.338283100063 xtb: 6.6.1 (8d0f1dd)
N           -1.73076517962328        3.23811365655082        1.99284870433262
C           -1.61175321008548        2.42090910669311        1.05306349145794
C           -2.73000417324743        2.17769472882681        0.06631265994987
C           -3.28603764640971        0.76824554265308        0.18751852743082
C           -4.24165277840038        0.34045467357777       -0.73668481943840
C           -4.82189351653679       -0.90800078006924       -0.63792552559918
O           -5.75725826642224       -1.40924307268151       -1.49640701306595
C           -6.21513923250768       -0.60472552937986       -2.55192904826254
C           -4.44877283482538       -1.76318325450887        0.42394757742367
O           -5.08702408012274       -2.96489563054991        0.45853483413200
C           -4.82800246133332       -3.80993280452934        1.54770132302485
C           -3.50414360317856       -1.33636692369159        1.33799471282398
C           -2.92611953127092       -0.07847490628660        1.21595126022445
C           -2.07004726239314        2.35048638763555       -1.35867474109790
C           -1.19495114206930        1.15529782060788       -1.82864594224596
C            0.14391376888924        1.05114158777018       -1.20747318945343
N            0.65108332769237       -0.04284850692325       -0.57067550217504
C            2.04525975838486       -0.05746006432387       -0.21226610892490
C            2.99198067174114       -0.62796789665290       -1.29378592626786
C            4.42175658865531       -0.50921258069156       -0.84805399853243
C            5.13191360848340        0.65857183121296       -1.05660791097729
C            6.44400960203762        0.78226286993652       -0.61885726957911
C            7.06942463302990       -0.26076160590830        0.04067177964769
O            8.34595325313161       -0.24772041155535        0.51272942421940
C            9.12710598704569        0.90258007510011        0.31186979681676
C            6.35320620056309       -1.45950710715479        0.26296596173165
O            7.04834608177287       -2.43176732839857        0.91501820352393
C            6.43110090979514       -3.67215552636206        1.14274129441848
C            5.04517681939636       -1.56279045649751       -0.17730855635583
C           -0.02392299066014       -1.31412975767838       -0.63717579610447
C           -3.85231590176652        3.12668105686156        0.32759966426265
C           -4.72726159130760        1.91552083989867        3.18960162418840
C           -3.65040478263438        4.59325209029980        0.21633954494259
H           -4.54057857061192        1.00929622077989       -1.52716943607516
H           -6.69468477199751        0.31123301656624       -2.19095283119852
H           -6.95170764098076       -1.20963187508363       -3.07992760820127
H           -5.40675660677396       -0.34204303525711       -3.24311970844757
H           -5.08187182013570       -3.33133594558512        2.49950952999143
H           -5.46678715050812       -4.67760381663138        1.39845075853014
H           -3.78004669472532       -4.12912514040036        1.57416243957113
H           -3.21637823150379       -1.95569314297983        2.17182975255375
H           -2.20833464559941        0.24640638641077        1.95223346733425
H           -2.86880918807164        2.49744753392089       -2.09094791939043
H           -1.45688495911205        3.25341391377837       -1.36144846124307
H           -1.75584401171085        0.22920687494327       -1.71356720440876
H           -1.02997783939599        1.30565678571812       -2.90415529953077
H           -0.70406831674059        1.83865620639567        0.82266918205784
H            0.75836588817741        1.93756190265724       -1.16376854216385
H            2.14891258470786       -0.64927436597865        0.69961170719446
H            2.36027824587021        0.96397126461728        0.00908357915392
H            2.84419030403515       -0.07011201415463       -2.21914629654567
H            2.74213820538362       -1.67434135349330       -1.48034410347714
H            4.66764599486039        1.48390717468007       -1.57562462326542
H            6.97158379190604        1.70402955926748       -0.80397191369041
H            8.69370498694145        1.77616383028656        0.80996860058518
H            9.26233716190471        1.12162657995154       -0.75275870952239
H           10.09545679180501        0.67997941417635        0.75762771436157
H            7.18129575203677       -4.28474316083342        1.64138809783201
H            5.55579062613400       -3.57474132899992        1.79369065333015
H            6.13684131272013       -4.15708144987081        0.20571089912353
H            4.49544571040977       -2.47810979793171       -0.01518400244564
H           -0.11952410296151       -1.70035146470041       -1.65973037799924
H           -1.02075858244513       -1.21866475509993       -0.20486403237078
H            0.54242960602495       -2.03503712864735       -0.05378273411254
H           -4.86380280474489        2.73305091251359        0.37725764808894
H           -3.75928280209002        2.19240297504265        3.54305812134264
H           -4.89980785722242        0.87679562686365        3.03953940770140
H           -5.52651919051549        2.47794786837146        3.58703910134522
H           -3.46807305343024        5.07435063986522        1.18574291667858
H           -2.78479270006648        4.85361120661490       -0.41716728211638
H           -4.55592590477190        5.02302820095280       -0.19815363868092
H           -0.92026447380655        3.39463148516631        2.58319536358001
