72
 energy: -1.949665589328 xtb: 6.6.1 (8d0f1dd)
N           -1.53930207976197        2.86141669540435        2.20627696949466
C           -1.56712877491043        2.20325122406532        1.13736652970785
C           -2.76234424523611        2.08510184746970        0.23493580021533
C           -3.31134811941781        0.66908361728505        0.30233299948176
C           -4.29319168856529        0.26544258215109       -0.60488863391544
C           -4.84358062732209       -1.00010583967523       -0.55072414560759
O           -5.80803265939368       -1.47555403095911       -1.38979690250082
C           -6.36289305971424       -0.60838731390868       -2.34438829710092
C           -4.40682840789103       -1.90923266058213        0.43862415712067
O           -5.01174042403167       -3.12942340639659        0.41868880764371
C           -4.69393094013631       -4.04548730189650        1.43360581281799
C           -3.43681986683879       -1.50622508344269        1.33549296717302
C           -2.89470943810963       -0.22862858271741        1.26597764580473
C           -2.19037050687602        2.31819067194575       -1.20707165211037
C           -1.25687207810957        1.18422233580692       -1.68954563153396
C            0.02438688876365        1.13276622619747       -0.93921917659159
N            0.64065042323095       -0.05013010240434       -0.56478986547514
C            2.01038041961902       -0.04071070823199       -0.16555928558974
C            2.94704628341789       -0.55649828376844       -1.28089645615357
C            4.37177068884075       -0.44707974525855       -0.84198219253602
C            5.08723506272213        0.71814241765552       -1.04545886491739
C            6.39773991288107        0.83129583724746       -0.60484766298669
C            7.01060273943364       -0.21896095789090        0.05477849525474
O            8.28885792284847       -0.21780707106815        0.52697707357482
C            9.07963136452172        0.92325503577854        0.31869738952933
C            6.28598631911584       -1.41131292709807        0.27721210289659
O            6.97040596756230       -2.39222949204095        0.93026475379794
C            6.33752440314577       -3.62546112690074        1.15147151947123
C            4.98093713301562       -1.50563457258361       -0.16663626549597
C           -0.04501485791998       -1.30846594300200       -0.62371064235564
C           -3.93461509929419        3.03343792038809        0.68208867980354
C           -4.50205963751563        2.63963060791960        2.10536469323511
C           -3.48471230306679        4.50456987450069        0.52560200125885
H           -4.63703562316638        0.95823990526826       -1.35537575946879
H           -6.82125933200465        0.26984991112860       -1.87726702281475
H           -7.13319494222647       -1.18968631718001       -2.84936374371739
H           -5.61898815789963       -0.28191841163883       -3.07931086741942
H           -4.91915212402736       -3.64236886572491        2.42673963950806
H           -5.32355192874095       -4.91347229926281        1.24619339242822
H           -3.64110437645061       -4.34637945420730        1.39580143047746
H           -3.09402299072463       -2.17034123962028        2.11148532201715
H           -2.15537748966378        0.06364234867044        1.99544314314682
H           -3.00524973600126        2.40788087423973       -1.92564179453070
H           -1.61927436296613        3.24720211893529       -1.23119257738539
H           -1.78997865778339        0.23573060034622       -1.63624025077740
H           -1.02440396536636        1.37488395269663       -2.74746538406569
H           -0.69408970363351        1.68456371827733        0.67517516792322
H            0.66736418159247        1.99211110008755       -0.98228254934255
H            2.13339975582272       -0.66633313130389        0.72629975531995
H            2.30614301711364        0.97822888288702        0.09184696655085
H            2.77908237473466        0.04198249812758       -2.17682974821896
H            2.69246939306499       -1.59334836473079       -1.50697750209942
H            4.62984278683307        1.54758096411826       -1.56369129441293
H            6.93421203780166        1.74804734749967       -0.79045092096578
H            8.65844809516589        1.80387351613943        0.81535693436696
H            9.21226423109376        1.13677062132163       -0.74764610076405
H           10.04699724110300        0.69044618211522        0.76092718215876
H            7.07814135798265       -4.24712384894593        1.65287843322710
H            5.45944929118885       -3.52039444271906        1.79777242594397
H            6.04215300430711       -4.10524375330284        0.21189028612686
H            4.41932693646101       -2.41372723381910       -0.00750534802276
H           -0.20690520677389       -1.64207838248355       -1.65607349448227
H           -1.01597232475037       -1.23819702874297       -0.12657973218596
H            0.55526913321894       -2.05784281837294       -0.11041648189446
H           -4.72796145636370        2.90076061906378       -0.06248294272325
H           -3.74372280179791        2.76499149187314        2.86812152959222
H           -4.85688216590370        1.61087442421427        2.16077594878501
H           -5.34996341629806        3.27725745543660        2.37875331785685
H           -2.75765835785948        4.76046591645989        1.28499019046509
H           -3.01548240986117        4.69855011175079       -0.44640640579095
H           -4.32354271639456        5.18787530134412        0.62443127474832
H           -0.65579318502872        2.88393611469716        2.70469208976927
