72
 energy: 104.718031362045 xtb: 6.6.1 (8d0f1dd)
N           -1.74037065818355        3.26261654229015        1.96879438092201
C           -1.60879003965989        2.43220067884422        1.04297809089937
C           -2.71850714922376        2.18146816951239        0.05068041318305
C           -3.28367612773783        0.77606191542456        0.17979717450866
C           -4.23720527049945        0.34643855451308       -0.74599357266685
C           -4.82033931590806       -0.90050135787051       -0.64445184713329
O           -5.75280212632703       -1.40367664941626       -1.50450881506845
C           -6.20346670858749       -0.60528756489659       -2.56793027486249
C           -4.45215797414347       -1.75191582452548        0.42250772854491
O           -5.09216877823862       -2.95208679618763        0.46101413863142
C           -4.83819730727531       -3.79167724281418        1.55571840203661
C           -3.50977914230598       -1.32329586553133        1.33811132265677
C           -2.92874226637130       -0.06697662221941        1.21295145451324
C           -2.05668506689646        2.34780914941116       -1.37033721489734
C           -1.18608192324829        1.15034021641388       -1.84002126267255
C            0.15544341150048        1.04213827776420       -1.22963746348629
N            0.65292426417197       -0.04264930763299       -0.56624484282994
C            2.04859251619186       -0.05760720393529       -0.21306936396491
C            2.99441523826066       -0.63365585215207       -1.29336339142031
C            4.42463973213026       -0.51430606558195       -0.84725241625740
C            5.13443050732044        0.65351500323586       -1.05693690527396
C            6.44683771463535        0.77804261107794       -0.62033255218626
C            7.07352339334794       -0.26424084999663        0.03885349232322
O            8.34993195985413       -0.25055212702326        0.50997479436290
C            9.13057695243901        0.90070625923421        0.31117248008936
C            6.35803323762520       -1.46358305821495        0.26126458855343
O            7.05446010065944       -2.43512602806253        0.91237204032909
C            6.43844826661674       -3.67597993502361        1.14169546391080
C            5.04965961552644       -1.56768758092438       -0.17779699726462
C           -0.02233472246966       -1.31355789350488       -0.63560188011137
C           -3.83211335800294        3.14180865573744        0.27658520752738
C           -4.76526444625677        1.86382979149027        3.28008559624344
C           -3.64349502203909        4.60838636249494        0.18411468963041
H           -4.53212700660276        1.01344846723442       -1.53955135409741
H           -6.68514875019161        0.31301834040241       -2.21609381335426
H           -6.93689400821113       -1.21323769025694       -3.09675378041208
H           -5.39071214085164       -0.34764264835179       -3.25586121097038
H           -5.09450133981373       -3.30710416839890        2.50379079411718
H           -5.47779786131992       -4.65914443031231        1.40905539966289
H           -3.79085541457892       -4.11224135358066        1.58731929356189
H           -3.22647755340577       -1.93977938957825        2.17566198695103
H           -2.21349783026668        0.26025783945831        1.95066819377696
H           -2.85523418830940        2.49899293450396       -2.10242418376691
H           -1.44545275855559        3.25338151312803       -1.37240481006021
H           -1.74922882217264        0.22648485164107       -1.71751711903825
H           -1.02927011988956        1.29870751897474       -2.91709039633017
H           -0.69994853336893        1.84880392348588        0.83118509363669
H            0.76592018752665        1.93093615939700       -1.17885861222046
H            2.15062733329656       -0.64663136897299        0.70239907786490
H            2.36553475129018        0.96445076849510        0.00396032362133
H            2.84882717179130       -0.07911187755456       -2.22143168161575
H            2.74483108500200       -1.68059586015411       -1.47683999918387
H            4.67043565569056        1.47872865012142       -1.57645040140114
H            6.97355686565744        1.70019061453350       -0.80584684625035
H            8.69634894755722        1.77359614282945        0.80986389941217
H            9.26645339055242        1.12057661024093       -0.75308819816336
H           10.09849427652823        0.67757428178329        0.75764826148611
H            7.18982216488633       -4.28706470279881        1.64028335198970
H            5.56348955173608       -3.57912385634456        1.79327367269217
H            6.14428088132207       -4.16175180406568        0.20511572756599
H            4.50129565737702       -2.48381284539327       -0.01589643436169
H           -0.11145026745645       -1.69724522817325       -1.65906222046721
H           -1.02287708590732       -1.21810768905292       -0.21043229157427
H            0.54155650288923       -2.03295576087479       -0.04866252482496
H           -4.83495665927775        2.74742730941395        0.37275567929340
H           -3.79242422486453        2.16514258410866        3.59109453558968
H           -4.92198000114201        0.82685673188467        3.11054645280743
H           -5.55667161594693        2.42403852912579        3.68754538140307
H           -3.51593191805692        5.08083049724968        1.16800100288772
H           -2.77661407119819        4.88831123806850       -0.43254888908614
H           -4.54003353805668        5.02431509745965       -0.26304889437473
H           -0.94184038036347        3.43244870842656        2.57224765588424
