72
 energy: 101.109093552085 xtb: 6.6.1 (8d0f1dd)
N           -1.71883871923145        3.21017028169449        2.01433300319086
C           -1.61224366778862        2.40614498166065        1.06148614559174
C           -2.74055521653454        2.17363197241762        0.08223139260197
C           -3.28861569734046        0.76073022928774        0.19609842780734
C           -4.24605039068977        0.33476286662539       -0.72673787474935
C           -4.82326906192990       -0.91528657120942       -0.63113960318779
O           -5.76123958946301       -1.41485568697012       -1.48819327323743
C           -6.22666989878031       -0.60473370362158       -2.53589256657351
C           -4.44484838094249       -1.77452021650119        0.42529112768893
O           -5.08106869730118       -2.97773832451403        0.45552655585348
C           -4.81731661831708       -3.82844133305158        1.53897075132268
C           -3.49804620451856       -1.34947732399878        1.33788136201848
C           -2.92334062590907       -0.08988324453342        1.21944116014620
C           -2.08359049800906        2.35225989855108       -1.34729363419960
C           -1.20262513540613        1.15927329145988       -1.81684128095419
C            0.13333709843553        1.06044936210757       -1.18632203951510
N            0.65141935553971       -0.04350691210306       -0.57766362771083
C            2.04275275552585       -0.05737222864316       -0.21006186705469
C            2.98952903563836       -0.62213390716336       -1.29375568075384
C            4.41862445774321       -0.50419517427780       -0.84867775343725
C            5.12902930158887        0.66357501340413       -1.05614601709760
C            6.44087307453407        0.78639116519196       -0.61755351359311
C            7.06507741864568       -0.25745296349662        0.04207111726294
O            8.34158361333085       -0.24509475608618        0.51510342650858
C            9.12339181926225        0.90421687836524        0.31257756871967
C            6.34819098068749       -1.45562200538132        0.26428329641772
O            7.04207447958006       -2.42850222116997        0.91728480155810
C            6.42360563052895       -3.66843064417876        1.14356498742060
C            5.04049311895765       -1.55810508012666       -0.17702987933516
C           -0.02467566898627       -1.31436250568622       -0.63973508671150
C           -3.87190373934855        3.11202122897760        0.38063532689335
C           -4.69842519815934        1.97129496098040        3.09794801779371
C           -3.65500428890435        4.57986671705574        0.25412478893911
H           -4.54854601944447        1.00536231923777       -1.51437154247126
H           -6.70436543766385        0.30872332497820       -2.16614435973022
H           -6.96624206035035       -1.20711477816173       -3.06258066545803
H           -5.42295910826356       -0.33700123383550       -3.23058121817214
H           -5.06897339849212       -3.35578015215709        2.49436107285979
H           -5.45538694390845       -4.69619629320600        1.38688947516543
H           -3.76884406186663       -4.14635558090912        1.56053435660957
H           -3.20517243448093       -1.97173810899579        2.16746686814358
H           -2.20327350447861        0.23268848929797        1.95451548611072
H           -2.88235927100495        2.49431004313998       -2.07959038148425
H           -1.46949933545519        3.25340166915934       -1.35181495366012
H           -1.76123296031282        0.23085157002740       -1.70844418192579
H           -1.03020545283669        1.31128878870689       -2.89103989977109
H           -0.70627100984577        1.82520088676597        0.81342249927136
H            0.75103187789145        1.94479515940665       -1.14999068557037
H            2.15020904263874       -0.65323475905481        0.69892959860214
H            2.35499018515286        0.96384466219113        0.01510605110627
H            2.83936643559019       -0.06089250825715       -2.21637308263188
H            2.73906725238671       -1.66784437056033       -1.48377862760320
H            4.66464609837322        1.48903595560326       -1.57475093488301
H            6.96920583715044        1.70781240734177       -0.80230046276949
H            8.69084559433465        1.77845005541853        0.81021686200348
H            9.25825918772374        1.12260882228206       -0.75232442574310
H           10.09194664935176        0.68173758009176        0.75784064370659
H            7.17267427598545       -4.28231300315837        1.64241412475844
H            5.54788314192840       -3.57045426320835        1.79380350784513
H            6.12936844407656       -4.15268110603476        0.20611081225510
H            4.48956485351728       -2.47277582118091       -0.01510691674685
H           -0.12774269074524       -1.70150273499477       -1.66119131879771
H           -1.01874165443056       -1.21966353509730       -0.19990166931805
H            0.54290448040082       -2.03744698095004       -0.05845807992939
H           -4.89107870912530        2.72312328321893        0.36260489459148
H           -3.74143982135866        2.23128089738911        3.49185136743545
H           -4.88332361743827        0.93027719118306        2.96986722213241
H           -5.50528949943132        2.53591185964025        3.48575216121904
H           -3.42666856549479        5.06660640527906        1.21398413505623
H           -2.78795398714869        4.81621581691707       -0.39433872883817
H           -4.55891664658666        5.03268130640719       -0.13585054359613
H           -0.89835063054236        3.35585803202590        2.59361561903880
