72
 energy: 5.777571050444 xtb: 6.6.1 (8d0f1dd)
N           -1.56999824228167        2.92011660234389        2.18201724205255
C           -1.57609975415267        2.23751466098662        1.12815217301859
C           -2.77308616166671        2.10214336083187        0.22904890099228
C           -3.30718642624499        0.68268385830193        0.28537022358629
C           -4.28552614733636        0.27769457468348       -0.62496942407939
C           -4.83985764476626       -0.98569542257677       -0.56468108157622
O           -5.80081177261664       -1.46610883070324       -1.40655188031301
C           -6.34140257365450       -0.60837908417186       -2.37726963614054
C           -4.41265499509454       -1.88722630254000        0.43549688253977
O           -5.02472673614565       -3.10417783508354        0.42458504643312
C           -4.71398914527617       -4.00880688307921        1.45127662789557
C           -3.44683860176127       -1.48158057282693        1.33545990094472
C           -2.89949234730123       -0.20737840420108        1.25863557973686
C           -2.18591520001585        2.33126543141844       -1.22236994181142
C           -1.25230050867549        1.18635310608214       -1.70705175030840
C            0.04115353602942        1.12779654304450       -0.97883340298421
N            0.64797127247513       -0.05603272016543       -0.57197054849295
C            2.01723594884800       -0.04723398968934       -0.17208396147963
C            2.95625239444082       -0.56812333107426       -1.28332579737109
C            4.38073219803245       -0.45697471792057       -0.84485912997914
C            5.09506006911154        0.70913366763842       -1.04783353778354
C            6.40544300618511        0.82388918154232       -0.60659877785732
C            7.01995621520561       -0.22562006585913        0.05292675757722
O            8.29806250364813       -0.22211344678062        0.52648041900978
C            9.08698376871910        0.92001431790882        0.31814311111535
C            6.29696424191415       -1.41860570795216        0.27518658709629
O            6.98260146811518       -2.39825475811799        0.92965255955589
C            6.35211854133519       -3.63256484073716        1.15072083211633
C            4.99180596321835       -1.51434001713872       -0.16914458285936
C           -0.03973300405579       -1.31368109616075       -0.62745309554984
C           -3.97545673069232        3.00249070356498        0.75213658244342
C           -4.50980659484944        2.54831248039763        2.22142708569002
C           -3.54782983570365        4.48765536466664        0.52437204176189
H           -4.62275427255956        0.96708418759276       -1.38153948568518
H           -6.80338613172069        0.27645203106186       -1.92629616595219
H           -7.10667010202811       -1.19336780178144       -2.88593976877718
H           -5.58728641030044       -0.29148874946981       -3.10584872158584
H           -4.94334431356421       -3.59348723807768        2.43851894233955
H           -5.34442002991081       -4.87741630252078        1.27077717772518
H           -3.66132113007332       -4.31157704040553        1.42341531895110
H           -3.11213015439970       -2.13800438906817        2.12068302192513
H           -2.16299121635710        0.09075185947043        1.98828793799420
H           -2.99107581858553        2.42455546237543       -1.95132485013160
H           -1.59808582077159        3.24967926161911       -1.25190171479007
H           -1.78122660392977        0.23595475838066       -1.64686582074077
H           -1.03496078425184        1.37119070577243       -2.77065685500053
H           -0.69776733266678        1.70464437102360        0.70058836513205
H            0.68209859264950        1.98860705658453       -1.00983988926703
H            2.14232083138639       -0.66764175092473        0.72381137902716
H            2.31204711443184        0.97312718835552        0.07877559103564
H            2.78894593575105        0.02444755976758       -2.18289900508250
H            2.70112152399167       -1.60628050273555       -1.50393873161206
H            4.63567938599704        1.53765655219310       -1.56563689019934
H            6.94083328536597        1.74159530757802       -0.79093219307339
H            8.66378906326777        1.79978785474656        0.81446259096469
H            9.21991058340743        1.13418899019050       -0.74813419565776
H           10.05483436073187        0.68990047911531        0.76075377941533
H            7.09357740845145       -4.25369705235164        1.65186835429272
H            5.47410274002275       -3.52871372174011        1.79714549751707
H            6.05702576890914       -4.11294759835071        0.21131832715178
H            4.43174666593510       -2.42342473665123       -0.00933442851172
H           -0.19594213668449       -1.65710574457998       -1.65811318208884
H           -1.01436052836221       -1.23560258466257       -0.13896359486517
H            0.55234277446063       -2.06169264302027       -0.10144391437517
H           -4.77839629552481        2.86087756147898        0.01850318418890
H           -3.73391084762945        2.67401521481322        2.96515701550537
H           -4.84210494117596        1.51028636635679        2.27985303146769
H           -5.36784875574890        3.15542176151412        2.54705134292178
H           -2.86797003741293        4.81702148540168        1.29792403020538
H           -3.00538998885098        4.61947639508848       -0.42186107758116
H           -4.38665201160185        5.18019215783798        0.50879803846589
H           -0.69209272524970        2.96279261653571        2.68475223955516
