72
 energy: -4.203456890775 xtb: 6.6.1 (8d0f1dd)
N           -1.52372153247707        2.83141409793172        2.21725807127619
C           -1.56205840717213        2.18590357588126        1.14111398770650
C           -2.75705489066302        2.07673551424361        0.23788811781974
C           -3.31279126455768        0.66221565781181        0.31023710560405
C           -4.29667354408276        0.25914433549958       -0.59518770266061
C           -4.84531516419768       -1.00740002530134       -0.54391717159039
O           -5.81167542315172       -1.48018987033076       -1.38130074726750
C           -6.37381943144979       -0.60864695643993       -2.32791191697020
C           -4.40388254389039       -1.92028561208231        0.44004125586668
O           -5.00507388916013       -3.14209198003074        0.41582516134885
C           -4.68383823096156       -4.06372219888269        1.42498134974877
C           -3.43183015172721       -1.51865581031122        1.33534903689036
C           -2.89206391119118       -0.23943918983281        1.26928661073479
C           -2.19201043389408        2.31188268392326       -1.19998521079752
C           -1.25899181000389        1.18237494651682       -1.68136177881534
C            0.01666904282811        1.13249123641920       -0.92173342480021
N            0.63796438428948       -0.04825663897628       -0.56341344433096
C            2.00725883748755       -0.03756944420838       -0.16281552801148
C            2.94271457303393       -0.55087020743675       -1.27992313671037
C            4.36739367286109       -0.44228512523381       -0.84039357765252
C            5.08334741730235        0.72255964548458       -1.04422415690401
C            6.39396512633440        0.83497499908375       -0.60410381015061
C            7.00599087881313       -0.21562244516746        0.05565790367730
O            8.28432796345306       -0.21564163998163        0.52712442226420
C            9.07599285542009        0.92492819547759        0.31886904703429
C            6.28054588245690       -1.40775418108599        0.27822710367001
O            6.96441514345570       -2.38927742807002        0.93048120012324
C            6.33026819520416       -3.62192977034755        1.15182710966971
C            4.97554780373164       -1.50145571336435       -0.16529095878945
C           -0.04727359550087       -1.30633635543053       -0.62240281493961
C           -3.91321358864734        3.04838246175169        0.64855731583314
C           -4.50061254764559        2.68534695587698        2.05000747543737
C           -3.45313263730286        4.51283973554986        0.52999208615770
H           -4.64429331841813        0.95382019504026       -1.34220164805206
H           -6.83050432505505        0.26619982728844       -1.85292410753708
H           -7.14656387019063       -1.18823473971130       -2.83098847600752
H           -5.63513196651910       -0.27747496657440       -3.06602690869396
H           -4.90710204531783       -3.66665460895391        2.42094235794864
H           -5.31295827150295       -4.93149114026771        1.23426319527422
H           -3.63094732863509       -4.36363667282643        1.38231499385743
H           -3.08574437826861       -2.18656004028367        2.10712748802590
H           -2.15199467806604        0.04983661064893        1.99936369169594
H           -3.01177195204811        2.39950624251363       -1.91323743299068
H           -1.62980140414746        3.24656310506497       -1.22198398795199
H           -1.79449710513453        0.23504764313844       -1.63138913745948
H           -1.01903074081041        1.37589809531477       -2.73612844482641
H           -0.69123262963578        1.67419428023254        0.66278495315127
H            0.65989949535022        1.99217787395515       -0.96796375581310
H            2.12876089805549       -0.66554522275218        0.72732114057097
H            2.30392757739605        0.98066855246990        0.09802772053448
H            2.77454131008821        0.05060383050531       -2.17418009559243
H            2.68823549253207       -1.58702077311639       -1.50863435915924
H            4.62702164830088        1.55242585033018       -1.56287800571694
H            6.93093531980522        1.75124343371910       -0.79040972637376
H            8.65585863398324        1.80599035744549        0.81571294466150
H            9.20847864505375        1.13811285865720       -0.74749918988907
H           10.04312291865687        0.69081903330772        0.76091049373319
H            7.07043933093887       -4.24385654942753        1.65337792312944
H            5.45219182513367       -3.51615224242238        1.79810528170312
H            6.03473707226706       -4.10140110057442        0.21216560561008
H            4.41314655511508       -2.40908888041168       -0.00664627345850
H           -0.21208404932082       -1.63523768686915       -1.65521228406404
H           -1.01637822253626       -1.23929210446175       -0.12073756303095
H            0.55649687642475       -2.05607042152595       -0.11455006683610
H           -4.70051483926342        2.91992277013629       -0.10252526040111
H           -3.75050506609190        2.81028553055727        2.82173075314081
H           -4.86506839878953        1.66058887120930        2.10000395884334
H           -5.34206825181266        3.33848719143065        2.29364565541126
H           -2.70394466010457        4.73504455890349        1.27933039247509
H           -3.02023311757030        4.73993974568669       -0.44886154050728
H           -4.29005544200142        5.18773828016450        0.68395149020361
H           -0.63708884718578        2.84551550714934        2.71329532662407
