72
 energy: 91.767174653781 xtb: 6.6.1 (8d0f1dd)
N           -1.69209340941327        3.15240744873856        2.05479251770345
C           -1.60827270112185        2.37407584167323        1.07765588690595
C           -2.75449956089466        2.16243057119129        0.11678685224535
C           -3.29336455391320        0.74572380909381        0.21517877368643
C           -4.25436249312937        0.32432996188497       -0.70558031823154
C           -4.82626193472672       -0.92876224630598       -0.61754448357656
O           -5.76922552528916       -1.42490340784322       -1.47187029094621
C           -6.25017659846345       -0.60513657944972       -2.50470340329422
C           -4.43756676636352       -1.79686266041699        0.42732527478961
O           -5.06939519869434       -3.00294605459190        0.44887739018751
C           -4.79565707327082       -3.86422025022011        1.52123669374585
C           -3.48702729722848       -1.37615791417070        1.33766193869644
C           -2.91844719620108       -0.11348353146475        1.22777459624394
C           -2.11075863441457        2.35331446722836       -1.32164413965547
C           -1.21593570155555        1.16713500624581       -1.79447731881087
C            0.11387003316415        1.07836137761987       -1.14854868450923
N            0.65371744774268       -0.04679432363456       -0.59418731677489
C            2.03765264714949       -0.05675824438402       -0.20485601580750
C            2.98473945119285       -0.61108043038462       -1.29261695862318
C            4.41226998749396       -0.49483569864933       -0.84902160537845
C            5.12318732752863        0.67288631703070       -1.05476090791701
C            6.43457742771604        0.79420537363710       -0.61474664312184
C            7.05658306973676       -0.25103188040727        0.04508577835601
O            8.33328722844938       -0.24008736171326        0.51937485896614
C            9.11631086359660        0.90747215840079        0.31437804360603
C            6.33855049527130       -1.44812660004433        0.26715064316799
O            7.03034156501510       -2.42235621099186        0.92155036254168
C            6.40957800381931       -3.66127107934093        1.14575490189033
C            5.03152084326310       -1.54927998179150       -0.17584267175594
C           -0.02544364128876       -1.31606882192305       -0.64332686499945
C           -3.89936569607894        3.08271413222866        0.49349481783554
C           -4.64448427907600        2.09345988164525        2.90085664644134
C           -3.65533317080104        4.55284528118202        0.32381091728508
H           -4.56365255219469        0.99856391604640       -1.48743455956100
H           -6.72506157668553        0.30309045403646       -2.11869433477416
H           -6.99517854541323       -1.20384060837496       -3.02795224953489
H           -5.45631432794841       -0.32752945861173       -3.20676361770998
H           -5.04281600638341       -3.40281841250967        2.48337489720792
H           -5.43199206483824       -4.73241067442467        1.36408920340177
H           -3.74604406589988       -4.17891014197767        1.53301349886745
H           -3.18461123953310       -2.00525625215333        2.15813761723543
H           -2.19433675701936        0.20383646728947        1.96120546412229
H           -2.90967475632517        2.48522550069275       -2.05407800007992
H           -1.49645942267569        3.25332995686113       -1.33195917799989
H           -1.76038836796672        0.22923103221252       -1.69727307638609
H           -1.04396430045728        1.32743681906853       -2.86904330183443
H           -0.70726294771572        1.79855009866304        0.79379649425218
H            0.73677455551715        1.95794093908929       -1.12200553648164
H            2.15279060590524       -0.65852376581944        0.70116763510150
H            2.34475519040641        0.96432123149463        0.02687687363781
H            2.83014347102232       -0.04337622665279       -2.21020132989542
H            2.73242057775840       -1.65526245126367       -1.48915380216174
H            4.65885342189404        1.49857079831742       -1.57292078257580
H            6.96445162334807        1.71492665021072       -0.79888100490337
H            8.68541181069062        1.78290652978497        0.81126753102261
H            9.25063069259309        1.12475606611574       -0.75095936636370
H           10.08507111813409        0.68478554806999        0.75892309512768
H            7.15661837189370       -4.27735990281079        1.64515175027225
H            5.53313896847290       -3.56208867851802        1.79476911406395
H            6.11532712276979       -4.14446705277532        0.20768016058633
H            4.47855299853617       -2.46282642655115       -0.01451535807447
H           -0.14455674061252       -1.70043727583086       -1.66357213272543
H           -1.01484499209686       -1.22221504643390       -0.18983179306053
H            0.54456512427006       -2.04364833484291       -0.06773288099263
H           -4.90431474004609        2.73990795232644        0.27530640590650
H           -3.72257298438032        2.31604284745643        3.38975141247256
H           -4.85573147083868        1.04632312959366        2.82436396232442
H           -5.46869190040802        2.65588735469356        3.28270342234239
H           -3.31957368326676        5.02306734204459        1.25243569461782
H           -2.81199640559565        4.75312884418534       -0.37397381619938
H           -4.55437371366261        5.06339983793208       -0.00203263364163
H           -0.85350849894207        3.27778086672141        2.61128966784620
