72
 energy: 105.068116152780 xtb: 6.6.1 (8d0f1dd)
N           -1.74588022833976        3.29339517552242        1.92901043093255
C           -1.59481669076359        2.44828976347247        1.01563536116072
C           -2.69058890361185        2.19499361991448        0.00402135700451
C           -3.27819622751313        0.80127364820394        0.15735439871891
C           -4.22394240436434        0.36207147828228       -0.77421669255214
C           -4.81663163645818       -0.88070226829901       -0.66069184574375
O           -5.74677118662534       -1.39447672066688       -1.51699124048424
C           -6.18379429342118       -0.60504285682211       -2.59372045160177
C           -4.46125553689326       -1.72282167851814        0.41894548183038
O           -5.09854374682315       -2.92747534073587        0.46305864778892
C           -4.85931432143456       -3.75555520812091        1.57040762544757
C           -3.52479886281431       -1.28467281769309        1.33627391805535
C           -2.93557880818797       -0.03250133632061        1.20196059423534
C           -2.02693056382110        2.33535973816055       -1.40935896952743
C           -1.16392515905941        1.13212085531775       -1.86524694452698
C            0.16553466180866        1.04097037513183       -1.24188157253428
N            0.66467704166257       -0.04784554032993       -0.58494070637949
C            2.05286353054711       -0.06072660456880       -0.20864448519418
C            2.99435827664826       -0.64313555502036       -1.28824447016856
C            4.42546138101839       -0.52382766808045       -0.84351125821674
C            5.13411754682137        0.64372150298552       -1.05697488644889
C            6.44543930105971        0.77382525481939       -0.62122643448256
C            7.07242908806248       -0.26745062987638        0.03801631623228
O            8.35164510754312       -0.25599418228984        0.50574141126083
C            9.12963343710230        0.89742481267148        0.31077949769083
C            6.35952181400500       -1.46789579752697        0.26042316629111
O            7.05962520978054       -2.44010688884625        0.90827682825064
C            6.44304773841599       -3.68018899368651        1.14041145349285
C            5.05265421329016       -1.57670678776419       -0.17719617940560
C           -0.01805530498822       -1.31603823800894       -0.64002804981482
C           -3.79197826306865        3.18229063460618        0.12915339658215
C           -4.90923908373388        1.74226664290998        3.53578792871625
C           -3.58794566266812        4.64650726394492        0.09758888134225
H           -4.50839025946687        1.02349675480415       -1.57752003399567
H           -6.66524076104727        0.31898542004647       -2.25695339350355
H           -6.91419076112303       -1.21684682713496       -3.12173236022518
H           -5.36340811936088       -0.35546569043552       -3.27612027032354
H           -5.12143333483377       -3.25990932926150        2.51137998703206
H           -5.50173185718551       -4.62231367410063        1.42630386139223
H           -3.81367867046140       -4.08281009166644        1.61215022619703
H           -3.25607846603463       -1.89048875256871        2.18608250956160
H           -2.22946976304129        0.30203129108133        1.94534099756064
H           -2.82400417968064        2.48038382377324       -2.14114080894563
H           -1.41770761041243        3.24244772110564       -1.41492851035985
H           -1.73325250710603        0.21375574169384       -1.73211290039147
H           -1.01061035202646        1.27160846836666       -2.94478601098639
H           -0.68352354474130        1.86129966529042        0.84246373979043
H            0.76248382412738        1.93512836579520       -1.19331787259770
H            2.15918291260508       -0.65170756949367        0.70651296922443
H            2.36604727945003        0.96380246096929        0.00692396113061
H            2.84599846460314       -0.08734445711932       -2.21650412523720
H            2.74196331538493       -1.68927840827322       -1.46709517091028
H            4.67268439614051        1.46945838750349       -1.57763348408890
H            6.96957848828738        1.69777957374274       -0.80843426901179
H            8.69524924995163        1.77055852678138        0.80965285721526
H            9.26716778388952        1.11825221948107       -0.75323965764489
H           10.09680054361851        0.67242656594827        0.75823388182185
H            7.19579234951107       -4.28867503911932        1.63927548735214
H            5.56860419903080       -3.58364003577443        1.79312547473329
H            6.14731247395027       -4.16724298831743        0.20496963751734
H            4.50249991211275       -2.49047087686026       -0.01294145410700
H           -0.12356287746567       -1.69002524852427       -1.66465250213726
H           -1.01326131165620       -1.22014644313222       -0.20036263269131
H            0.54505771292292       -2.04349170577146       -0.06007741403751
H           -4.77221367607056        2.82263275873515        0.36863647512690
H           -3.95361238818472        2.17595323769500        3.61476200044183
H           -5.01750964631968        0.70788896903704        3.32484869694142
H           -5.67457390361827        2.30309268200294        3.98767157839213
H           -3.44784347203260        5.02275259163572        1.11367158051428
H           -2.72211653462024        4.94766868388722       -0.50345160878996
H           -4.47646134902020        5.12677313731181       -0.30165550344866
H           -0.97147850070171        3.41127025622586        2.57808480943601
