72
 energy: 11.089356424667 xtb: 6.6.1 (8d0f1dd)
N           -1.58541032405646        2.95020783414108        2.16863092844933
C           -1.58094933115371        2.25438212667623        1.12334010206017
C           -2.77675950505069        2.10971241891502        0.22296158803574
C           -3.30550791514881        0.68939207887338        0.27684450331196
C           -4.28183880763380        0.28349437599488       -0.63502969999321
C           -4.83814050489901       -0.97867332708058       -0.57153913955624
O           -5.79720655147419       -1.46108593101890       -1.41495509543630
C           -6.33023720722706       -0.60761025502903       -2.39345808861034
C           -4.41569119219607       -1.87615110330754        0.43427029705043
O           -5.03097945396356       -3.09149890438570        0.42776948110673
C           -4.72395547378652       -3.99042278287334        1.46030130983337
C           -3.45187798704599       -1.46900111308316        1.33576614573557
C           -2.90188236358305       -0.19651115419507        1.25495917464678
C           -2.18246928492049        2.33725035038181       -1.23123266787992
C           -1.24989519779728        1.18717042119847       -1.71658265040706
C            0.04960236828941        1.12392092807204       -0.99964031359366
N            0.65240323835962       -0.05891790266354       -0.58094960321969
C            2.02035224207394       -0.04989337735517       -0.17621465531593
C            2.96098286009953       -0.57384490102111       -1.28457279514287
C            4.38521650680468       -0.46196195024083       -0.84602650554645
C            5.09890584307514        0.70461079120998       -1.04881521595061
C            6.40923745021940        0.82019729690775       -0.60738639652168
C            7.02458742630727       -0.22893831892184        0.05211086981185
O            8.30267149937534       -0.22433049947949        0.52616177882772
C            9.09064165855616        0.91836320025165        0.31777789176114
C            6.30234776715564       -1.42227667939057        0.27438146750822
O            6.98867175878287       -2.40133059376803        0.92931775006316
C            6.35935911865929       -3.63614863103101        1.15043916110542
C            4.99710312221145       -1.51875028988571       -0.17004473770639
C           -0.03762928752803       -1.31576090186766       -0.62973715219539
C           -3.98494970699095        2.99380075799648        0.76769404332292
C           -4.51317009698704        2.50307230458723        2.27524335919253
C           -3.57562572920117        4.48301002565113        0.51943620385871
H           -4.61537086426343        0.97105310742658       -1.39492869707987
H           -6.79370092741606        0.28045520775628       -1.95033347336386
H           -7.09320761395743       -1.19397143101263       -2.90410658125048
H           -5.57099050696681       -0.29556079641334       -3.11877353708406
H           -4.95528603927096       -3.56899669416873        2.44454041805119
H           -5.35495820829901       -4.85919563747310        1.28322914556586
H           -3.67147037707350       -4.29430548227796        1.43723462521805
H           -3.12081468381946       -2.12169706253707        2.12540076235483
H           -2.16661496677354        0.10467589075891        1.98450829312850
H           -2.98390561568174        2.43367797420800       -1.96384312644796
H           -1.58730033026234        3.25079141103055       -1.26116820443854
H           -1.77714333464490        0.23621226210018       -1.65190352797942
H           -1.04125321434851        1.36905045780391       -2.78288637293132
H           -0.69985260868459        1.71577453687570        0.71221419531688
H            0.68948460396304        1.98594913968657       -1.02402852341313
H            2.14633660390270       -0.66751915231569        0.72188720956271
H            2.31501440235733        0.97114149322154        0.07179123058366
H            2.79404858510840        0.01572204504072       -2.18607422899830
H            2.70540069527787       -1.61263613131709       -1.50225159415384
H            4.63854931554740        1.53264720107849       -1.56649075859765
H            6.94407068100804        1.73829186797277       -0.79144003812251
H            8.66642565546118        1.79768679387554        0.81397902784929
H            9.22366093965336        1.13289628774877       -0.74845422905302
H           10.05874401538447        0.68957845316838        0.76054046027608
H            7.10133412432913       -4.25691943106281        1.65141017797079
H            5.48143813210206       -3.53289121200701        1.79703249055798
H            6.06434323196942       -4.11685260641210        0.21116332751034
H            4.43775566737488       -2.42829503181964       -0.00994353831404
H           -0.19116803532576       -1.66444547095915       -1.65908707915139
H           -1.01399101159389       -1.23366322701670       -0.14510787700342
H            0.55022333653994       -2.06273612560360       -0.09699127301714
H           -4.80158578148453        2.84180627312817        0.05456106632386
H           -3.72906905600512        2.62973285349361        3.00988154082466
H           -4.83384474740088        1.45988982603916        2.33600441218751
H           -5.37497728291269        3.09310188162994        2.62722770534382
H           -2.92448954577316        4.84324177843044        1.30349404598341
H           -2.98990169769526        4.59487285324779       -0.40261042915979
H           -4.41640991028850        5.17119255816736        0.44869701770053
H           -0.71034255560062        3.00265545605825        2.67405474460948
