72
 energy: -5.403007796343 xtb: 6.6.1 (8d0f1dd)
N           -1.50782641079158        2.80172001166280        2.22611192627831
C           -1.55659620981151        2.16835073634194        1.14340963965426
C           -2.75172114865801        2.06810029107611        0.24058558354284
C           -3.31361818004363        0.65486469673904        0.31753033051706
C           -4.29976210742308        0.25256053237643       -0.58584121891122
C           -4.84698089208183       -1.01475542623340       -0.53725472235778
O           -5.81544588446576       -1.48466075105156       -1.37279616084325
C           -6.38480287788590       -0.60895174987370       -2.31152799224242
C           -4.40095579838567       -1.93134606924107        0.44135383376717
O           -4.99849337333472       -3.15472096349927        0.41295423517708
C           -4.67375045185284       -4.08178358424908        1.41634930353505
C           -3.42691130865700       -1.53122589604998        1.33522487499395
C           -2.88924225624856       -0.25049456802564        1.27242256996919
C           -2.19366960421222        2.30649883583052       -1.19312783893844
C           -1.26129304878273        1.18034183405055       -1.67347784730230
C            0.00947772168490        1.13072668860568       -0.90634088202139
N            0.63546025460870       -0.04685214920487       -0.56227755594000
C            2.00419840836035       -0.03423958844873       -0.16035536230961
C            2.93845677397178       -0.54526627621453       -1.27902148521043
C            4.36295645428179       -0.43756548305386       -0.83850574608311
C            5.07933475532458        0.72692702723035       -1.04272800756257
C            6.39015217827098        0.83864337126023       -0.60346249157350
C            7.00138881992351       -0.21234151471943        0.05629086568079
O            8.27985304544209       -0.21356153268423        0.52698938830725
C            9.07232897909766        0.92658213560253        0.31901371666978
C            6.27512407623229       -1.40424458501911        0.27904540044091
O            6.95851423003790       -2.38640863892000        0.93039142843512
C            6.32302008103952       -3.61839617055101        1.15202235205800
C            4.97011780257251       -1.49736876512842       -0.16385031799986
C           -0.04953876617182       -1.30432396616089       -0.62122080889369
C           -3.89066945051536        3.06339833020100        0.61564065152552
C           -4.49860121104619        2.73079362554300        1.99597139624971
C           -3.42213318417829        4.52129442019848        0.53625822600533
H           -4.65135859762826        0.94952660152062       -1.32887947672794
H           -6.84010920545740        0.26244973563190       -1.82898023997211
H           -7.15985515428260       -1.18704050872292       -2.81262335437255
H           -5.65145725064390       -0.27314774492324       -3.05292264623365
H           -4.89512126720897       -3.69078180173823        2.41509954309452
H           -5.30225412479238       -4.94941322980156        1.22239074267905
H           -3.62079951750280       -4.38065131642361        1.36885403496080
H           -3.07793751053942       -2.20296122214166        2.10302583562534
H           -2.14892990942536        0.03590199081700        2.00359298217674
H           -3.01846561264918        2.39228134110378       -1.90089396707284
H           -1.64020280735822        3.24679432894116       -1.21284323956329
H           -1.79889811846117        0.23381648663875       -1.62642009799852
H           -1.01401993641584        1.37657926824165       -2.72497492870624
H           -0.68805662527652        1.66275135306861        0.65083861880651
H            0.65255922906617        1.99138755126701       -0.95343696139526
H            2.12413152027881       -0.66430931886976        0.72807678080032
H            2.30212995806424        0.98342218193550        0.10376112000402
H            2.77031951887037        0.05926539247568       -2.17168672185294
H            2.68391449671601       -1.58067372903072       -1.51036056418312
H            4.62406408862214        1.55707636020357       -1.56209133422693
H            6.92762946481097        1.75438164807114       -0.79055148452395
H            8.65327336211749        1.80809958451224        0.81612322982179
H            9.20476963933308        1.13960176204688       -0.74731983783559
H           10.03920798774991        0.69118157292735        0.76092033187176
H            7.06276363371112       -4.24054674422835        1.65372072651678
H            5.44497936274754       -3.51184407437866        1.79837622978596
H            6.02725224937108       -4.09766337906331        0.21235857305255
H            4.40695054742303       -2.40459162265122       -0.00601633272372
H           -0.21690786941180       -1.62879911212277       -1.65444201571065
H           -1.01711953020462       -1.24035023979233       -0.11549515856945
H            0.55723836416469       -2.05393173813354       -0.11793043328073
H           -4.67183006725004        2.93855463403086       -0.14257403121028
H           -3.75585917485233        2.85627125052435        2.77596541776212
H           -4.87056101204687        1.70927483472275        2.03979975577922
H           -5.33307692688866        3.39847256526074        2.20897126679543
H           -2.65077067685387        4.71055257155706        1.27363596404463
H           -3.02759084121928        4.78184282775439       -0.44735642386480
H           -4.25651240256788        5.18540240200156        0.74432932812456
H           -0.61736803598848        2.80704840529100        2.71808843842215
