72
 energy: 53.174992533533 xtb: 6.6.1 (8d0f1dd)
N           -1.65055599267260        3.06722898048492        2.11170288964265
C           -1.59902362904501        2.32171937453002        1.10239098995321
C           -2.77431139648284        2.14031956268964        0.17658331743646
C           -3.29981992485114        0.71937909103580        0.24229215744958
C           -4.26802873332139        0.30754421438469       -0.67500934429254
C           -4.83284462619664       -0.94977096081608       -0.59905226346676
O           -5.78329198580717       -1.44002434411107       -1.44855943296680
C           -6.28671464828624       -0.60651626555888       -2.45946543018696
C           -4.42935011797213       -1.83108720150190        0.42880294610459
O           -5.05483470346001       -3.04062740276735        0.43921943606501
C           -4.76358599598654       -3.91657401118829        1.49522064128180
C           -3.47376515332681       -1.41731249292809        1.33636974087345
C           -2.91275905546933       -0.15115228477127        1.23974830061162
C           -2.15418633952055        2.35392031091519       -1.27551445014366
C           -1.23583469187487        1.18384317632812       -1.75962282284674
C            0.08231665289108        1.10608373023081       -1.08259327045981
N            0.65924983282190       -0.05723208872569       -0.60454051951979
C            2.03009382536208       -0.05613861071662       -0.19441948353630
C            2.97797365972565       -0.59569190084643       -1.28989784848299
C            4.40201580835604       -0.48145940065544       -0.84891094913453
C            5.11399795513147        0.68662038352749       -1.05185667850448
C            6.42440041063835        0.80558919042710       -0.61073509015471
C            7.04347616435080       -0.24179799233235        0.04870514387170
O            8.32178767706623       -0.23318946111869        0.52368718555891
C            9.10578668315155        0.91230894203686        0.31644196783376
C            6.32394775457155       -1.43698899951630        0.27082074763670
O            7.01382876815965       -2.41385773836472        0.92624976617729
C            6.38928855798317       -3.65071729840273        1.14819402657431
C            5.01812419841944       -1.53653138691590       -0.17312558635316
C           -0.02932529137610       -1.31868456802262       -0.63960582141579
C           -3.96363651168657        3.01485459249698        0.69930288953378
C           -4.55020788205757        2.30538408255009        2.55627866911058
C           -3.65082859294196        4.50222158905673        0.44452250595514
H           -4.58714028431911        0.98800469124814       -1.44750798879826
H           -6.75771181057211        0.29359931494428       -2.04978358163667
H           -7.03916514803957       -1.20051214946121       -2.97729896207613
H           -5.50760403116953       -0.31421558420684       -3.17175099488153
H           -5.00348815019473       -3.47110200102492        2.46685703160487
H           -5.39637302673320       -4.78625475139861        1.33162729877061
H           -3.71200004191318       -4.22450160024999        1.49156192208388
H           -3.15865325823179       -2.05671123689546        2.14328499882916
H           -2.18351753254843        0.15958278727359        1.97103832221735
H           -2.94929921450968        2.46787063717792       -2.01342419606136
H           -1.54057255999220        3.25464336809025       -1.30045833370756
H           -1.76088850501982        0.23378088909190       -1.67519044924730
H           -1.06085808692015        1.35398009869045       -2.83461443379587
H           -0.70734862933375        1.76180234516208        0.76060899234688
H            0.71706399016174        1.97381147585102       -1.08036556931824
H            2.15813286338091       -0.66468108970526        0.70937092200116
H            2.33002602758690        0.96553755177514        0.04462688056736
H            2.81571698215357       -0.01827656122154       -2.19982706572544
H            2.72194162862925       -1.63719086967503       -1.49487048684293
H            4.65043836354477        1.51280958471738       -1.56977538299882
H            6.95678791822711        1.72514291955839       -0.79443254756064
H            8.67743092404494        1.78947990371856        0.81280536909264
H            9.23938328232067        1.12876739925034       -0.74938013036616
H           10.07468884183372        0.68828351221204        0.75999761501679
H            7.13367115652341       -4.26959434337440        1.64832405753826
H            5.51194233039649       -3.54975878361402        1.79583247703021
H            6.09452903014356       -4.13264998060550        0.20947068950663
H            4.46223860767545       -2.44841342634940       -0.01286797774186
H           -0.16821422389524       -1.69078686730416       -1.66281317238551
H           -1.01280649985833       -1.22675174380181       -0.17112608934538
H            0.54467327508406       -2.05686084243639       -0.07933093912354
H           -4.88101330388454        2.77641308629081        0.17265619958037
H           -3.70870768878670        2.45734348182247        3.20751524933981
H           -4.81707624602926        1.24700532393199        2.58360467142892
H           -5.40645765698627        2.84446542051251        2.97723462431209
H           -3.15120811015163        4.95378391490106        1.29285044209281
H           -2.89537253121676        4.64724172219288       -0.35274809105067
H           -4.51698022647873        5.11118604585146        0.19662903863773
H           -0.79013224554205        3.16109402448921        2.63662108941083
