  25
        -42.16431290
 C          3.4365052197        0.8421737130       -0.2286207172
 N          2.4269145902       -0.1745017674       -0.1315067492
 C          2.6166671212       -1.4828508428        0.0029676334
 N          1.4209207790       -2.1183046968        0.0928642052
 C          0.4441005979       -1.1772672015        0.0144916295
 C          1.0711234435        0.0653232345       -0.1280352190
 C          0.3411288452        1.2606634053       -0.2236314694
 O         -1.3503614993        3.2191420474        0.7370078572
 N         -0.9825325583        1.0769823900       -0.1683653389
 C         -1.8166645808        2.2985743560       -0.1763778642
 C         -1.6808124936       -0.1349651407       -0.0721486903
 O         -2.8766406020       -0.2043635477       -0.0938907530
 N         -0.8910925998       -1.2987606218        0.0416321201
 C         -1.5470543282       -2.5830946504        0.1918525446
 H          3.8553980890        1.0575487705        0.7560477495
 H          4.2385913297        0.5196572237       -0.8903971418
 H          2.9745402631        1.7474401052       -0.6175405836
 H          3.5688800765       -1.9732100141        0.0353967415
 H         -1.8218873454        2.6921703488       -1.1969761542
 H         -2.8288502046        2.0133563636        0.1169469571
 H         -0.5887757312        3.7016947648        0.3821738118
 H         -1.2536272556       -3.0500611160        1.1322834195
 H         -1.3009689991       -3.2367962975       -0.6454692992
 H         -2.6216421703       -2.4059864492        0.2001591835
 H          1.3011442858       -3.1160510259        0.1991250298
