  72
        -99.25433393
 N         -1.7283725798        2.6780648359        2.6082029850
 C         -1.6963100650        2.0755512705        1.5162538898
 C         -2.8336025073        2.0243722063        0.5330852429
 C         -3.3642957427        0.6017726569        0.4464683094
 C         -4.2686505053        0.2569176455       -0.5599325071
 C         -4.8051178126       -1.0176006656       -0.6452586262
 O         -5.6867468715       -1.4312758405       -1.5767375259
 C         -6.2099873025       -0.5011048075       -2.4957215938
 C         -4.4255472020       -2.0030942323        0.3073907650
 O         -4.9986639070       -3.2112942834        0.1489059751
 C         -4.7636466356       -4.2152968813        1.1091458477
 C         -3.5256571071       -1.6540557822        1.3022187095
 C         -3.0043337905       -0.3682932642        1.3700408635
 C         -2.2337695123        2.4661329828       -0.8272503013
 C         -1.3555163032        1.4054752188       -1.5144580454
 C         -0.0462608390        1.1916167925       -0.8596303032
 N          0.5054969661        0.0105297278       -0.6245691840
 C          1.8831612973       -0.0902008678       -0.2005180231
 C          2.8106668884       -0.4594853241       -1.3736002167
 C          4.2227692671       -0.6224795724       -0.8742748447
 C          5.0443446829        0.4902801227       -0.7590769988
 C          6.3459206641        0.3374654631       -0.2666324332
 C          6.7171379466       -0.9081560696        0.0735812984
 O          7.8858749311        2.8779246463       -0.1132122105
 C          9.1924272926        3.1083718417       -0.0942354391
 C          5.9777357633       -2.0666458238       -0.0025186239
 O          6.5109147429       -3.2363407578        0.3815856202
 C          5.7396455093       -4.4128477370        0.2951370678
 C          4.6758883318       -1.8822027783       -0.4978797824
 C         -0.2011697638       -1.2256880329       -0.8635962295
 C         -4.0205701651        2.9600830997        0.9127813455
 C         -4.6873571276        2.5209559526        2.2138626451
 C         -3.6180831354        4.4290079087        1.0072654867
 H         -4.5707551919        1.0024881863       -1.2765443922
 H         -6.7254352901        0.3182439011       -1.9856646304
 H         -6.9258421293       -1.0572266427       -3.0977813483
 H         -5.4296563861       -0.0952731733       -3.1477396179
 H         -5.0718364251       -3.8934118254        2.1080497628
 H         -5.3715062251       -5.0631071810        0.7994029107
 H         -3.7107225948       -4.5136189615        1.1294002429
 H         -3.2320807534       -2.3751997133        2.0476299997
 H         -2.3318405683       -0.1265984296        2.1783971501
 H         -3.0487036643        2.7172109320       -1.5052196673
 H         -1.6453444341        3.3711406292       -0.6718887541
 H         -1.9142083251        0.4762569926       -1.6101734716
 H         -1.1501872950        1.7783917405       -2.5264968156
 H         -0.8033450333        1.5449138922        1.1295385174
 H          0.5742431576        2.0596560204       -0.6897550458
 H          1.9620192554       -0.8535177815        0.5784883492
 H          2.2064928694        0.8629537471        0.2218655850
 H          2.7694014560        0.3336347797       -2.1217144345
 H          2.4671908060       -1.3865296030       -1.8343856075
 H          4.7073488489        1.4721617441       -1.0508720660
 H          6.9910519114        1.2125869044       -0.1784512715
 H          9.4189875032        4.1022259724        0.3391528042
 H          9.6340206634        3.0844269835       -1.1097755853
 H          9.7369403697        2.3583805169        0.5136167657
 H          6.3896100252       -5.2135305568        0.6419439114
 H          4.8571992372       -4.3594334280        0.9403682365
 H          5.4338880632       -4.6172404093       -0.7353413944
 H          4.0237394541       -2.7371722969       -0.6004463242
 H         -0.3758253603       -1.3822764351       -1.9301194952
 H         -1.1638979785       -1.2205914758       -0.3462308403
 H          0.3894481379       -2.0556527875       -0.4836274471
 H         -4.7588805670        2.8620073532        0.1083686334
 H         -3.9909472743        2.6167550817        3.0406532419
 H         -5.0265475909        1.4896499437        2.1542573912
 H         -5.5487413557        3.1531443564        2.4122135558
 H         -2.8413569566        4.5613664206        1.7549174957
 H         -3.2697658480        4.8172603206        0.0532547215
 H         -4.4818230601        5.0161649899        1.3094617801
 H         -0.8942683574        2.6746802078        3.1859978519
