25
 energy: -42.103598238934 gnorm: 0.003882896105 xtb: 6.6.1 (8d0f1dd)
C            3.22709546517104        1.17990430757453        0.05463778039470
N            2.27063747718812        0.10822354727588       -0.03699897093271
C            2.53940981182936       -1.19058003580510       -0.10261921588914
N            1.39254482349792       -1.89803323281053       -0.16551248545358
C            0.34826030369743       -1.00795813087615       -0.13759543259971
C            0.90605713601355        0.26194352147740       -0.05730747329223
C            0.09736802859202        1.46266276072328       -0.01881617192079
O            0.51686510726081        2.59603368008257        0.03124610653432
N           -1.26572504397709        1.15343830772817       -0.05221485471325
C           -2.20211935668395        2.27309163264953       -0.00212110811830
C           -1.86173114031742       -0.07697057186401       -0.11011663834958
O           -3.04558958453883       -0.24715580960578       -0.11547538527119
N           -0.98503839189908       -1.24154253083183       -0.17329986947534
C           -1.55970714071501       -2.45241069580980       -0.25296996638578
H            3.71617495250306        1.16661036970285        1.02961288383398
H            3.98514012721176        1.07710659704432       -0.72044244261271
H            2.70338224310328        2.12825626127254       -0.06364280106635
H            3.52135214590054       -1.62204852763382       -0.10503523056468
H           -1.62403090093920        3.19332332087799        0.02337978806270
H           -2.84618606180974        2.25443683604032       -0.87966615954310
H           -2.82473283417237        2.19356429416142        0.88785034339530
H           -1.58055066643887       -4.75911881926336        1.76426157800083
H           -0.96436102005703       -3.34027859081563       -0.28747540510987
H           -2.63316878061580       -2.48919268357942       -0.26313729034592
H            1.32908481429546       -2.90506726611540       -0.21536996067757
