  72
        -99.26813163
 N         -1.7477661414        2.6983244134        2.4922752650
 C         -1.7293259354        2.1029810045        1.3944297038
 C         -2.8981136295        2.0185091932        0.4499914715
 C         -3.4365654200        0.5967102909        0.4302749668
 C         -4.4269316414        0.2468695806       -0.4900633449
 C         -4.9669024604       -1.0284503479       -0.5277270410
 O         -5.9324420869       -1.4434480751       -1.3680264932
 C         -6.5466245591       -0.5096167643       -2.2285111838
 C         -4.4754806977       -2.0127962776        0.3731053104
 O         -5.0505920493       -3.2325075981        0.2604592382
 C         -4.6815074291       -4.3084673160        0.9022140392
 C         -3.4927729240       -1.6594009868        1.2950798448
 C         -2.9876085505       -0.3713429192        1.3222957120
 C         -2.3508201760        2.3926138311       -0.9526772760
 C         -1.4710164133        1.3123164543       -1.6082674921
 C         -0.1272307396        1.1931720092       -0.9986809444
 N          0.4923892176        0.0531165497       -0.7097738127
 C          1.8791998833        0.0538488893       -0.3072787646
 C          2.8151471254       -0.3605035843       -1.4590447711
 C          4.2473626749       -0.2500462695       -1.0151186623
 C          4.9329966661        0.9472035978       -1.1419314002
 C          6.2452295779        1.0638522878       -0.7106100832
 C          6.8985473796       -0.0175443896       -0.1371817676
 O          8.1670798223       -0.0217914765        0.3114194032
 C          8.9453459750        1.1463562281        0.1871428004
 C          6.2009681195       -1.2494785146        0.0032750953
 O          6.9102128223       -2.2461259080        0.5686099791
 C          6.3183531043       -3.5136252230        0.7242417856
 C          4.8889223493       -1.3413894420       -0.4342052150
 C         -0.1583572683       -1.2276821895       -0.8454877116
 C         -4.0647213112        2.9794156608        0.8331053443
 C         -4.7131383843        2.5756833367        2.1551461890
 C         -3.6388537640        4.4436818243        0.8944453688
 H         -4.7945931640        0.9896923349       -1.1772784308
 H         -6.9983703532        0.3126207522       -1.6667597980
 H         -7.3262725144       -1.0623096334       -2.7484624150
 H         -5.8372286361       -0.1117119645       -2.9604546591
 H         -5.1427846691       -6.3606475075        3.0217728178
 H         -5.2799376600       -5.1785988440        0.7113432658
 H         -3.8675813344       -4.3344380264        1.6060257040
 H         -3.1364978284       -2.3776964536        2.0155126529
 H         -2.2545347389       -0.1190856378        2.0721872383
 H         -3.1932909565        2.5890212235       -1.6150205771
 H         -1.7757204241        3.3155101502       -0.8703342783
 H         -1.9988860716        0.3602531433       -1.6113236846
 H         -1.3295007894        1.6174189117       -2.6535192006
 H         -0.8326225888        1.6043532568        0.9776675897
 H          0.4602334081        2.0954366604       -0.9132705516
 H          2.0095744192       -0.6355179987        0.5314969303
 H          2.1566667930        1.0552216514        0.0278726681
 H          2.6381799594        0.2998606639       -2.3097116470
 H          2.5929048533       -1.3838379743       -1.7634237452
 H          4.4506675791        1.8010223186       -1.5932013541
 H          6.7547594994        2.0057448119       -0.8305798996
 H          8.5171907912        1.9759134661        0.7580256988
 H          9.0584487901        1.4424784345       -0.8600076890
 H          9.9206373926        0.8919094243        0.5975307841
 H          7.0853059529       -4.1403660610        1.1751198369
 H          5.4495327955       -3.4721425905        1.3890732434
 H          6.0232839038       -3.9401698165       -0.2394527945
 H          4.3547104439       -2.2739019656       -0.3396025948
 H         -0.3361439353       -1.4721870263       -1.8951691089
 H         -1.1149466525       -1.2272185832       -0.3173673712
 H          0.4742312282       -1.9987297953       -0.4131207735
 H         -4.8195446152        2.8825476983        0.0445791046
 H         -3.9992262670        2.6765267141        2.9658546701
 H         -5.0693714558        1.5487997231        2.1234700584
 H         -5.5605756334        3.2255379049        2.3566816691
 H         -2.8705488074        4.5834361869        1.6484368181
 H         -3.2718845908        4.8014891936       -0.0639042228
 H         -4.4968444588        5.0516112234        1.1690782422
 H         -0.8914789632        2.7134296026        3.0374907484
