25
 energy: 0.000000000000 xtb: 6.6.1 (8d0f1dd)
C            3.23720132972391        1.16630909158653        0.08434468864950
N            2.29877796055224        0.07527476373246        0.03981602671198
C            2.58028186251803       -1.21425391179017        0.03006175752192
N            1.43813944744728       -1.93419254010258        0.00098261751768
C            0.39035684826767       -1.05887462812143       -0.00790371763344
C            0.93510047688824        0.21347817468824        0.01709077332874
C            0.09450143016486        1.40504290868848       -0.00410946993748
O            0.49712746915594        2.54126690785742       -0.00342325656480
N           -1.25076628431515        1.06271869620815       -0.03085477937476
C           -2.21907191394203        2.15522079838987       -0.05001256521996
C           -1.81739470187490       -0.20012724136556       -0.04692818139228
O           -2.99983858926755       -0.37846413507442       -0.07008877579474
N           -0.92618577614240       -1.30210203518959       -0.03682761236648
C           -1.46982251276835       -2.64643077634382       -0.06029819901142
H            3.71247229913541        1.21471443890471        1.06488839270555
H            4.00791460421487        1.03430799217987       -0.67357688121503
H            2.69909982127087        2.09770098766290       -0.09130154035862
H            3.56654087521359       -1.63682977417947        0.04233139674524
H           -1.67107945562430        3.09322822573871       -0.02552706696334
H           -2.82428927394145        2.09428605349656       -0.95318074103337
H           -2.87644002486466        2.07745706351925        0.81450059976605
H           -1.17061985538665       -3.19584861009707        0.83242224714061
H           -1.14560246782873       -3.17511580834413       -0.95688266944647
H           -2.55549768731684       -2.55659960601237       -0.07459039105944
H            1.38130842369251       -2.94313824728853       -0.01389874052104
25
 energy: -5.346756453927 xtb: 6.6.1 (8d0f1dd)
C            3.23672290358636        1.17401935673697        0.08657575160993
N            2.30065872230945        0.09941746947992        0.03505005192057
C            2.60668429672059       -1.24256314266687        0.03240839924937
N            1.43814787441937       -1.96805257413557        0.00130331949426
C            0.40643524484948       -1.08491688027530       -0.00865103883287
C            0.91429363327222        0.21137310408039        0.01413289585995
C            0.11145436434058        1.37918068321351       -0.00562494835155
O            0.49195307450658        2.55543570704775       -0.00458940042988
N           -1.27310584061472        1.05342969523459       -0.03147751000086
C           -2.22413204838629        2.15456442468478       -0.04958668248251
C           -1.81758752268782       -0.19336825967396       -0.04751401225933
O           -3.01658397727614       -0.38141490581428       -0.07047941761449
N           -0.93884682665728       -1.30113731808797       -0.03747877398919
C           -1.47835914053895       -2.63852422414594       -0.06046051303347
H            3.71728517543608        1.22085472013941        1.06808481465235
H            4.00609189479698        1.03776117227423       -0.67569012377410
H            2.69865342315243        2.10388261098470       -0.08966980192242
H            3.58762089050751       -1.64154099455258        0.04803477430680
H           -1.66733950075390        3.08989744922171       -0.02543879570597
H           -2.83053657128281        2.10078497968811       -0.95335370470260
H           -2.88168016180180        2.08401746069510        0.81625231749245
H           -1.17216334517760       -3.18849615680726        0.83205954922815
H           -1.14729306087139       -3.16809375701083       -0.95653624238377
H           -2.56283986146354       -2.54892128056168       -0.07480275199890
H            1.47146870162675       -2.98885035585325       -0.01240717872053
25
 energy: -2.958517302931 xtb: 6.6.1 (8d0f1dd)
C            3.23292871749966        1.17442657238574        0.08648134319434
N            2.29727941910176        0.09658775905682        0.03395634473489
C            2.60973972072888       -1.24745558486997        0.03534043354250
N            1.45442740718125       -1.99737788434617        0.00146544163813
C            0.41268596699244       -1.10784793799031       -0.00967457944465
C            0.90897017080889        0.19745762518884        0.01245169288758
C            0.10832424874301        1.37143611763825       -0.00617495499839
O            0.48986083261395        2.54956004567443       -0.00432636439630
N           -1.27858060476825        1.05568320337246       -0.03170357805920
C           -2.22898627972033        2.15851031134899       -0.04961888635848
C           -1.82030109130992       -0.19060328680287       -0.04792674145290
O           -3.01980766514387       -0.37878097846063       -0.07073451734741
N           -0.94003646949275       -1.30087489462560       -0.03784737806142
C           -1.48515081527964       -2.63430493962151       -0.06034281032242
H            3.71530078782873        1.21934216987686        1.06696442782495
H            4.00213564920602        1.03882725556525       -0.67637830100385
H            2.69906534845095        2.10732105110325       -0.08803055247130
H            3.59453245463633       -1.63282537554475        0.04994910442509
H           -1.67251725000493        3.09431529819689       -0.02562836055478
H           -2.83610249186859        2.10553853786382       -0.95310556879505
H           -2.88704622593527        2.08889340121417        0.81605968903445
H           -1.17609738655215       -3.18179523174700        0.83237774909378
H           -1.15139337439183       -3.16187371975944       -0.95621861897221
H           -2.56867980774999       -2.54218332838739       -0.07463891713631
H            1.57174282205930       -3.02894746078006       -0.01082646924397
25
 energy: 0.925446747148 xtb: 6.6.1 (8d0f1dd)
C            3.22686635283203        1.17649485856888        0.08760283832652
N            2.29055955109900        0.09672700520551        0.03229405579951
C            2.60439303200208       -1.24752993832955        0.03683329315867
N            1.46868896886310       -2.02665460679762       -0.00054756970213
C            0.41666125919510       -1.13104993540737       -0.01149482605341
C            0.90129525515717        0.18307146654699        0.01104121172629
C            0.10291756223695        1.36117061638766       -0.00545215685686
O            0.48347874466996        2.54082930886700       -0.00263451280898
N           -1.28517045977689        1.05674443103212       -0.03152843808500
C           -2.23191956612573        2.16315730133739       -0.05077413690859
C           -1.82360372605730       -0.18871275862108       -0.04765720808365
O           -3.02342319382123       -0.37719276596888       -0.07069289497664
N           -0.94233792381569       -1.30127940277951       -0.03792522195188
C           -1.49332123373280       -2.63078218930649       -0.05931652352194
H            3.71255467340388        1.21753658560585        1.06667512645829
H            3.99569022838624        1.04301956936505       -0.67651672120578
H            2.69909481396331        2.11382961619982       -0.08289923561345
H            3.58923477641924       -1.62739118900844        0.04667350604263
H           -1.67292410908408        3.09790018069794       -0.02670026283879
H           -2.83827010018999        2.11176709361080       -0.95495011008848
H           -2.89112921689249        2.09601615383587        0.81429125552014
H           -1.18123545625487       -3.17682826550448        0.83300522609900
H           -1.15973610282469       -3.15707064970989       -0.95571098327456
H           -2.57574291410733       -2.53457084488810       -0.07161592638401
H            1.67279357488039       -3.06449097627469       -0.00919514732177
25
 energy: 6.326658568137 xtb: 6.6.1 (8d0f1dd)
C            3.22225397206928        1.17561344161846        0.08518132911201
N            2.28402552646012        0.09619631538781        0.03142275461101
C            2.60026825168877       -1.24670446605225        0.04187630949822
N            1.48511544886425       -2.05420212913620        0.00334197584569
C            0.42145344305022       -1.15192255142476       -0.00984995413031
C            0.89407022934971        0.17014904056068        0.01128643453966
C            0.09691141784420        1.35459207221831       -0.00459071243695
O            0.48163615457126        2.53254542074992       -0.00145887207957
N           -1.29206576626369        1.05984968448018       -0.03145521046111
C           -2.23653467503898        2.16914742352055       -0.04955010813548
C           -1.82667744696349       -0.18572781915016       -0.04864632253799
O           -3.02682149011911       -0.37450359780985       -0.07328525337165
N           -0.94364353993294       -1.30026062334374       -0.03775155427446
C           -1.49968785084684       -2.62676463474490       -0.06077725918992
H            3.71129871608348        1.21444053956785        1.06305031998746
H            3.98943845107474        1.03841882677635       -0.68060011749557
H            2.70076977065315        2.11675490154447       -0.08511455383312
H            3.58518863357295       -1.62144981982689        0.05043590595316
H           -1.67572485756598        3.10302025582376       -0.02468402426579
H           -2.84412101097852        2.12153810038842       -0.95318185770839
H           -2.89638380601551        2.10423788339632        0.81528318783539
H           -1.18726283233134       -3.17234821541003        0.83142992378010
H           -1.16262651020316       -3.15131983029600       -0.95657455719318
H           -2.58127791113755       -2.52916363377428       -0.07506999681580
H            1.77033817406296       -3.10000332926034       -0.00887953935431
25
 energy: 25.082924746521 xtb: 6.6.1 (8d0f1dd)
C            3.21685390766817        1.17396552029314        0.08504385774130
N            2.26440732464567        0.09219892024284        0.03463596681022
C            2.52922884620559       -1.22524968532703        0.03671758976432
N            1.44152406959104       -1.97960506597604        0.00797020043154
C            0.39680911160063       -1.10154299526010       -0.00946544461335
C            0.89018060799903        0.20033056705813        0.01201743146794
C            0.07594796664457        1.38584150535492       -0.00310492015688
O            0.47067906708508        2.54015714882480       -0.00008562535173
N           -1.28630044274543        1.07807957182624       -0.03077418773420
C           -2.24095775545821        2.17931598134459       -0.05109782416563
C           -1.83106473103412       -0.18958890112575       -0.04820258991270
O           -3.03099803130642       -0.35400961550091       -0.07364218976288
N           -0.95524518105279       -1.27907788512754       -0.03726601475404
C           -1.50487211228439       -2.61580549633177       -0.05969801627166
H            3.70542314232801        1.20636722694952        1.06121027904936
H            3.98061891267445        1.03668951785413       -0.68169768551990
H            2.70109463587787        2.12016884892875       -0.08025877853355
H            3.52683446041359       -1.61384821340426        0.04830800643906
H           -1.68360972143644        3.11431998884963       -0.02652741881392
H           -2.84689733621828        2.12699836524201       -0.95490991458559
H           -2.90119378939659        2.11131510871401        0.81253902246746
H           -1.18551351894377       -3.15927420068036        0.82904438169979
H           -1.16251754753971       -3.13888747149573       -0.95209496281796
H           -2.58678745695698       -2.52406224512372       -0.07320927000317
H            2.07740421749878       -3.49202775145610       -0.01594924036440
25
 energy: 22.348623397911 xtb: 6.6.1 (8d0f1dd)
C            3.21281615125014        1.16800154778194        0.08405151648618
N            2.25394858514270        0.09002763427607        0.03372903943279
C            2.50865996094969       -1.22942123312396        0.03765921576814
N            1.42227619830355       -1.98733659321667        0.01181578205616
C            0.38559593887503       -1.09485975860571       -0.00922575104328
C            0.88079680962034        0.20602404064094        0.01036104418190
C            0.06757410743517        1.39461394288161       -0.00535293327040
O            0.46222754908017        2.54694574359491       -0.00042926878024
N           -1.29228877314422        1.08625796869670       -0.03159202785201
C           -2.24672280755428        2.18696784198539       -0.04987451777750
C           -1.83842481726681       -0.18287069179996       -0.05001182171551
O           -3.03872216071286       -0.34500362461091       -0.07510172815784
N           -0.96448720066549       -1.27075150060520       -0.03882170145058
C           -1.51067567198647       -2.60944200683086       -0.06044369673836
H            3.70254265776081        1.19964365809880        1.05994981877419
H            3.97602319160037        1.03329278644980       -0.68394475441059
H            2.70105744968462        2.11715079470427       -0.07919552004895
H            3.50857150790661       -1.61512253755291        0.05145199758667
H           -1.68725368826155        3.12055561737142       -0.02511621759660
H           -2.85317036044208        2.13554483008762       -0.95322008782932
H           -2.90590771858968        2.11870680902422        0.81441389406186
H           -1.18774060914303       -3.15100828742715        0.82800309240390
H           -1.16487997019277       -3.13176742178371       -0.95178542486680
H           -2.59262837139205       -2.52272939301920       -0.07420322331110
H            2.19476783596259       -3.55144311280299       -0.01392569306120
25
 energy: 20.808735189386 xtb: 6.6.1 (8d0f1dd)
C            3.20954732228230        1.16398070118415        0.08429119445456
N            2.24510560289818        0.09039842017482        0.03419014304199
C            2.49296080621411       -1.23136058346449        0.03739132152933
N            1.40589840626417       -1.98826519004058        0.00868723733801
C            0.37660020254970       -1.08716347188863       -0.00844053781448
C            0.87299492494822        0.21325160607668        0.01089232109164
C            0.06170188136216        1.40227632902519       -0.00515301266114
O            0.45491065309971        2.55459123714212       -0.00015461511868
N           -1.29848025095386        1.09396624675149       -0.03161879593871
C           -2.25232373768644        2.19501426029377       -0.05061431385093
C           -1.84461040414504       -0.17538553842495       -0.04971994931620
O           -3.04498006694330       -0.33676365347236       -0.07522726975891
N           -0.97222519416255       -1.26325825269440       -0.03838698672041
C           -1.51602414239684       -2.60279682668779       -0.05950402837756
H            3.69992717075077        1.19542170987679        1.05983010071260
H            3.97184082061645        1.02844816868135       -0.68425575816841
H            2.70651526969428        2.11789250675190       -0.07869004221568
H            3.49254738792215       -1.61772925626151        0.05159484773614
H           -1.69281376927472        3.12837379170419       -0.02598066133517
H           -2.85883223751577        2.14488164276193       -0.95382166541867
H           -2.91213185965128        2.12865152239807        0.81318006260050
H           -1.19132762691125       -3.14379130644642        0.82884394878066
H           -1.16969892775899       -3.12460457168959       -0.95110467598208
H           -2.59769018694341       -2.51688118728544       -0.07255905740307
H            2.30531199666967       -3.61380563351841       -0.01751826026941
25
 energy: 19.932457213852 xtb: 6.6.1 (8d0f1dd)
C            3.20879427186258        1.16107830684991        0.08493271348296
N            2.23855877504697        0.09346939128862        0.03491391526926
C            2.47931670229178       -1.22991009363579        0.03629218432726
N            1.39013945000518       -1.98128848563531        0.00766130872500
C            0.36818565178763       -1.07447053616476       -0.00786118946069
C            0.86871612117258        0.22455906360375        0.01112131735294
C            0.05750026723215        1.41254771229150       -0.00605728410783
O            0.44977202824506        2.56513060853861       -0.00140669665048
N           -1.30310322056196        1.10183187098689       -0.03211285325839
C           -2.25684269492233        2.20156531463920       -0.05085771969529
C           -1.85018344981910       -0.16731082194911       -0.05000264804695
O           -3.05080492861089       -0.32745919823235       -0.07552995465206
N           -0.97951644717447       -1.25459401741361       -0.03831722250190
C           -1.52248003299719       -2.59519559523809       -0.05900594773841
H            3.69987893659843        1.19112201644164        1.06013847880553
H            3.97009445035301        1.02390424000721       -0.68429133754588
H            2.71289113283807        2.11846280284193       -0.07739900103715
H            3.47768573585697       -1.61870848753218        0.05018605684607
H           -1.69511897313797        3.13323877219056       -0.02630700919217
H           -2.86339985199180        2.15135975133896       -0.95399455759899
H           -2.91599255450700        2.13506257907893        0.81341166594272
H           -1.19791874239907       -3.13670478258551        0.82918813161785
H           -1.17663390085853       -3.11799585817899       -0.95032553305833
H           -2.60410202841484       -2.51019619972498       -0.07197032203377
H            2.42393532673459       -3.68395456419695       -0.01864016778764
25
 energy: 19.538355030216 xtb: 6.6.1 (8d0f1dd)
C            3.20875979561906        1.15798390093413        0.08449339680847
N            2.23499212241217        0.09425476154499        0.03689635000435
C            2.46688807250966       -1.23010870516753        0.03529436553595
N            1.37332092921221       -1.97181956286428        0.00579462958505
C            0.36038311408548       -1.05935884416158       -0.00772359247142
C            0.86714107944125        0.23686481423795        0.01197394619531
C            0.05540805631376        1.42367668541188       -0.00563915378793
O            0.44728516978309        2.57654865784129       -0.00075151184265
N           -1.30586281203024        1.11072303344218       -0.03183658530604
C           -2.26105081097431        2.20817652439912       -0.05073256930767
C           -1.85426287567447       -0.15822034813562       -0.04988943388871
O           -3.05499442864535       -0.31702417979226       -0.07545579071499
N           -0.98574574486745       -1.24449631788905       -0.03850924871366
C           -1.52804511044953       -2.58566612478107       -0.05930603795752
H            3.69856074592921        1.18915343114590        1.05998108792700
H            3.96862612354431        1.01979728261898       -0.68531443653268
H            2.71245675891093        2.11451372849656       -0.07998297120226
H            3.46340526004166       -1.62380106367560        0.04975361662773
H           -1.69923427298638        3.13928113388698       -0.02608921056979
H           -2.86771086161705        2.15697084431462       -0.95375430078952
H           -2.92052877014756        2.14062621580297        0.81323161156372
H           -1.20286073666688       -3.12763834307664        0.82852450610049
H           -1.18208460173790       -3.10867388491363       -0.95057807095349
H           -2.60989991218446       -2.50087463751732       -0.07205025364115
H            2.54035573127759       -3.77489718660032       -0.01587368999138
25
 energy: 19.435758531465 xtb: 6.6.1 (8d0f1dd)
C            3.21080010242080        1.15981760087105        0.08406395557220
N            2.23393001445547        0.09849786389168        0.03901882920606
C            2.45369713921757       -1.22862176710587        0.03410478106782
N            1.35453760474080       -1.95934900074268        0.00456514701189
C            0.35186185404133       -1.04122225525464       -0.00760092558579
C            0.86638751118773        0.25134807405358        0.01271526224057
C            0.05250098719998        1.43592895383140       -0.00577627428493
O            0.44350932453037        2.58924270595431       -0.00106862851985
N           -1.30923908591951        1.12062510105750       -0.03198081289602
C           -2.26607585996268        2.21615950719631       -0.05051880084862
C           -1.85926478318895       -0.14822757160363       -0.04991750284980
O           -3.05992196620953       -0.30613878482246       -0.07528891367032
N           -0.99226755042904       -1.23302522061432       -0.03834550742880
C           -1.53069875474947       -2.57632887978201       -0.05939909711541
H            3.70046024191438        1.18863828113506        1.05953032073312
H            3.96836562023420        1.01488636384326       -0.68602012562411
H            2.71604583966128        2.11701860021540       -0.08268806878608
H            3.44705985921963       -1.63124668538065        0.04965059294951
H           -1.70399562358855        3.14677107422012       -0.02596279759632
H           -2.87395033296521        2.16436232808565       -0.95292963763386
H           -2.92606510161405        2.14784460664106        0.81327503000910
H           -1.20237466915567       -3.11807275196010        0.82749921336513
H           -1.18161594348647       -3.09897331788733       -0.94973632662774
H           -2.61327401336662       -2.49563973299953       -0.07208406149459
H            2.64166935343622       -3.89175691229639       -0.01293330342298
25
 energy: 19.491718583393 xtb: 6.6.1 (8d0f1dd)
C            3.21147327357314        1.16386817824504        0.08407455032157
N            2.23152280486359        0.10562859997229        0.03946262087161
C            2.44055810724682       -1.22502475124444        0.03288606790955
N            1.33625198256670       -1.94572881743656        0.00399525953296
C            0.34310484596940       -1.02291581473967       -0.00723561302118
C            0.86503118162560        0.26603273291765        0.01356769192868
C            0.04963734342038        1.44828218012806       -0.00510683112412
O            0.44053859968785        2.60178566394945       -0.00063799291994
N           -1.31189258653381        1.13049655286808       -0.03202392366479
C           -2.26977821299175        2.22431660765471       -0.05070893754598
C           -1.86375798074453       -0.13942715881408       -0.04979090594172
O           -3.06463270010383       -0.29561887411171       -0.07550747259088
N           -0.99881568353538       -1.22224030096360       -0.03750780216187
C           -1.53354812685686       -2.56732341258032       -0.05907317913028
H            3.70120055877906        1.19225461065848        1.05970681891717
H            3.96718674667379        1.01204864125219       -0.68634479939508
H            2.71789285656487        2.12198017359505       -0.08351774440121
H            3.43067044077038       -1.63717634810191        0.04936512445424
H           -1.70633195815872        3.15386331935274       -0.02601949434032
H           -2.87820334554881        2.17196898346841       -0.95307608420951
H           -2.93049196527741        2.15551361324988        0.81287705171205
H           -1.20175765379476       -3.10892726369556        0.82657742796232
H           -1.18110025451553       -3.08960803492485       -0.94827891139202
H           -2.61717375901545       -2.49131184676544       -0.07163987657593
H            2.72371010631336       -4.02495248181846       -0.01111058206354
25
 energy: 19.618314557533 xtb: 6.6.1 (8d0f1dd)
C            3.21166182091322        1.16747225383237        0.08420675565382
N            2.22843109387756        0.11234555163884        0.03940821355746
C            2.42755184053791       -1.22143487678388        0.03184800777203
N            1.31824921742061       -1.93220585405600        0.00340681617771
C            0.33436239602685       -1.00512456907852       -0.00697517581095
C            0.86358033491526        0.28004336892226        0.01418573352960
C            0.04676025469830        1.45976850800562       -0.00470568478683
O            0.43714558401674        2.61358910676124       -0.00076808901560
N           -1.31338404728004        1.13634013170792       -0.03205019092860
C           -2.27232389553959        2.23069390461820       -0.05080567318206
C           -1.86789453715384       -0.13528263516158       -0.04954756300287
O           -3.06941466966276       -0.28658283144072       -0.07552907527260
N           -1.00533049037122       -1.21349131423925       -0.03656491753596
C           -1.53628490390455       -2.55889523387402       -0.05862427337996
H            3.70099614766978        1.19562237894825        1.06026810881280
H            3.96759015683962        1.00881331342481       -0.68497400274373
H            2.71918897093888        2.12623483334655       -0.08430823829044
H            3.41452949154416       -1.64282161669392        0.04853846464633
H           -1.70879468445263        3.16017812848951       -0.02614020402414
H           -2.88134717194289        2.17908963267961       -0.95309910367106
H           -2.93352231504147        2.16269051244169        0.81279586928289
H           -1.20026283075551       -3.09912513509274        0.82600055191037
H           -1.17942052821301       -3.07948954440648       -0.94685895027161
H           -2.62137580656359       -2.48852221058615       -0.07132608931940
H            2.78879496986159       -4.17018515849319       -0.00978821554042
25
 energy: 19.781577760167 xtb: 6.6.1 (8d0f1dd)
C            3.21274228678426        1.17203592075919        0.08439747348526
N            2.22670558935067        0.11956972884172        0.03908404289821
C            2.41919309735799       -1.21554481468253        0.03153676001271
N            1.30258518929222       -1.91727304184560        0.00275272496477
C            0.32692453104556       -0.98735047925275       -0.00711504062267
C            0.86335063050718        0.29399701910682        0.01446585538241
C            0.04594067755749        1.47131214384845       -0.00470695603071
O            0.43573487593879        2.62533514046279       -0.00116102499634
N           -1.31167669579005        1.14172846932006       -0.03225405335762
C           -2.27437958621506        2.23598816495519       -0.05090775009829
C           -1.87194921165388       -0.13084120923638       -0.04963921133160
O           -3.07366407631041       -0.27691541638089       -0.07534935035619
N           -1.01081225526129       -1.20613247764887       -0.03721294492867
C           -1.53268247463367       -2.55526307776207       -0.05867750517283
H            3.70144189018036        1.19927121857385        1.06078616546192
H            3.96994010954046        1.01012631363960       -0.68332876601239
H            2.72336222903196        2.13234332754023       -0.08428375016857
H            3.39860866188222       -1.65147318718752        0.04756418168064
H           -1.71408280867511        3.16741335203594       -0.02632139097663
H           -2.88480589359655        2.18489925800079       -0.95265587548370
H           -2.93675667207529        2.16849501530272        0.81222480460986
H           -1.19353878070152       -3.09304317665331        0.82601840505603
H           -1.17217981998846       -3.07392444015950       -0.94653335651442
H           -2.61882550232063       -2.48771860580037       -0.07125677932961
H            2.84210225496954       -4.31972253514995       -0.00967483170143
25
 energy: 19.877525095939 xtb: 6.6.1 (8d0f1dd)
C            3.21661078723361        1.17936319802041        0.08491598328270
N            2.22752902142436        0.13206019270564        0.03892907920415
C            2.42038986420416       -1.20223377884759        0.03151736200932
N            1.29960277577586       -1.89854915424035        0.00237080816938
C            0.32463719944893       -0.97011056626531       -0.00724248993713
C            0.86488691239348        0.30902550994625        0.01504810312270
C            0.04507773339550        1.48283714975602       -0.00437376156783
O            0.43112308333397        2.63797491472175       -0.00123336531572
N           -1.30906426822321        1.14548856334324       -0.03192431489342
C           -2.27286910006308        2.23699140140110       -0.05095920782855
C           -1.87537845469103       -0.12568927018951       -0.04921608771213
O           -3.07750350402060       -0.26812310847901       -0.07446840360590
N           -1.01260788939168       -1.19876850403810       -0.03751646007630
C           -1.52542527534562       -2.55279992402277       -0.05903352234544
H            3.70459940421114        1.20343672964989        1.06176954859022
H            3.97439210394654        1.01455445182730       -0.68173467597718
H            2.72731958034211        2.13873054221674       -0.08492578263498
H            3.39777353727119       -1.64163680079401        0.04617275903261
H           -1.71707790830587        3.17136380182262       -0.02647150706484
H           -2.88357326829086        2.18502064483844       -0.95250962682167
H           -2.93596591083705        2.16881114212504        0.81158512455097
H           -1.18550315279197       -3.09165090311356        0.82502734133595
H           -1.16415025253078       -3.07210255506634       -0.94640275558963
H           -2.61180244721948       -2.49063482657728       -0.07177477167694
H            2.84396114664419       -4.48018751811150       -0.01059137256575
25
 energy: 19.870351638863 xtb: 6.6.1 (8d0f1dd)
C            3.21975929686435        1.18851928267723        0.08506849678906
N            2.23060436549065        0.14499972120131        0.03876631821238
C            2.43135093047432       -1.18711388614280        0.03197596610487
N            1.31591340664147       -1.88648735803923        0.00326118559415
C            0.33348294307272       -0.96111762674798       -0.00685320277329
C            0.86767880569855        0.32045882579179        0.01591048966795
C            0.04499489795888        1.49255322242957       -0.00411916108288
O            0.42731530407636        2.64888865080788       -0.00188787349338
N           -1.30724832547091        1.15029708615697       -0.03172823454193
C           -2.27338328820223        2.23755776539476       -0.05086429017322
C           -1.87091363274909       -0.12233027611659       -0.04913307148960
O           -3.07238787937305       -0.27118697038738       -0.07457496774923
N           -1.00452261878508       -1.19425506104660       -0.03714887794272
C           -1.51696620792896       -2.54893160316099       -0.05893419820228
H            3.70667367130555        1.20864588197908        1.06225951539381
H            3.97622076835352        1.02103599793597       -0.68213011924321
H            2.73019991699399        2.14701392876764       -0.08439724094063
H            3.40869685182201       -1.62686709857319        0.04631729846028
H           -1.72245720352395        3.17446636682803       -0.02608399283737
H           -2.88074184091958        2.17937582768702       -0.95318890821484
H           -2.93329742515641        2.16277357025812        0.81236038920340
H           -1.17757817496088       -3.08917217490708        0.82455213737467
H           -1.15599197050795       -3.06971975432885       -0.94563987588213
H           -2.60377601590253       -2.49250519524237       -0.07201280770216
H            2.77756458427789       -4.61941588427319       -0.01390396173991
25
 energy: 19.809831263045 xtb: 6.6.1 (8d0f1dd)
C            3.22203066024448        1.19544395706462        0.08518909327708
N            2.23344994987374        0.15274536507559        0.03879776707632
C            2.44597964442115       -1.17621934166698        0.03252200262923
N            1.33873878770457       -1.88665279474287        0.00407856704363
C            0.34484509452656       -0.97152962398128       -0.00677264005767
C            0.86878671292758        0.31559421314892        0.01527937318411
C            0.04451057310615        1.48737056238091       -0.00443037402541
O            0.42603031959491        2.64351070151328       -0.00157445732664
N           -1.30984683787780        1.14948539440709       -0.03179188340704
C           -2.27622353581935        2.23780282083257       -0.05090144495146
C           -1.86434178813287       -0.12529573220279       -0.04899260290083
O           -3.06506842037987       -0.28161622832514       -0.07436952891133
N           -0.99444072023665       -1.19883679876697       -0.03691015418554
C           -1.51289134819596       -2.54973387140688       -0.05880691593273
H            3.70865168152435        1.21193051494688        1.06252177522063
H            3.97817821215248        1.02528040207702       -0.68174649985528
H            2.73353468641037        2.15405817084694       -0.08426011784707
H            3.42453104984143       -1.61350439531391        0.04698018546887
H           -1.72488223114513        3.17525731923819       -0.02641332960342
H           -2.88439002711874        2.17943948053974       -0.95337428943510
H           -2.93665316762342        2.16274484518273        0.81265069565909
H           -1.17463478873569       -3.09008062696608        0.82494047002113
H           -1.15280977868096       -3.07058050429396       -0.94575556661742
H           -2.59958310851381       -2.48940206827941       -0.07204862348128
H            2.63871268510498       -4.64818297256415       -0.01777758884727
