25
 energy: 0.000000000000 xtb: 6.6.1 (8d0f1dd)
C            3.23720163006194        1.16630919979326        0.08434469647475
N            2.29877817382611        0.07527477071623        0.03981603040599
C            2.58028210190900       -1.21425402444508        0.03006176031096
N            1.43813958087363       -1.93419271955128        0.00098261760884
C            0.39035688448383       -1.05887472636071       -0.00790371836672
C            0.93510056364412        0.21347819449412        0.01709077491437
C            0.09450143893243        1.40504303904423       -0.00410947031874
O            0.49712751527797        2.54126714362870       -0.00342325688240
N           -1.25076640035757        1.06271879480407       -0.03085478223738
C           -2.21907211982101        2.15522099834493       -0.05001256985998
C           -1.81739487048744       -0.20012725993278       -0.04692818574614
O           -2.99983886758376       -0.37846417018721       -0.07008878229737
N           -0.92618586207120       -1.30210215599479       -0.03682761578324
C           -1.46982264913417       -2.64643102187190       -0.06029820460571
H            3.71247264356769        1.21471455160235        1.06488849150277
H            4.00791497605742        1.03430808813993       -0.67357694370751
H            2.69910007168542        2.09770118228144       -0.09130154882931
H            3.56654120610678       -1.63682992603973        0.04233140067262
H           -1.67107961066214        3.09322851271934       -0.02552706933167
H           -2.82428953597071        2.09428624779827       -0.95318082946668
H           -2.87644029173232        2.07745725625962        0.81450067533302
H           -1.17061996399332       -3.19584890659852        0.83242232437030
H           -1.14560257411436       -3.17511610292205       -0.95688275822323
H           -2.55549792440841       -2.55659984320617       -0.07459039797972
H            1.38130855184625       -2.94313852034425       -0.01389874181052
25
 energy: -2.331886055003 xtb: 6.6.1 (8d0f1dd)
C            3.23293876692576        1.17734089917176        0.08605200286576
N            2.29589830587299        0.09312973826060        0.03781738985168
C            2.59837921043419       -1.23282866018028        0.03089230684641
N            1.45584887550498       -1.98337245415692        0.00090305143294
C            0.40289618412785       -1.08526009340830       -0.00859088848633
C            0.92005843577937        0.20981825665887        0.01501155645321
C            0.09443841537712        1.39572022404115       -0.00495867460862
O            0.49288549571112        2.56189993746446       -0.00342529253845
N           -1.26840930415317        1.06131990969532       -0.03124451537459
C           -2.22948453942468        2.16259315882718       -0.04999249634912
C           -1.82550264127345       -0.19227658170633       -0.04775564851278
O           -3.02306304525470       -0.37057590254705       -0.07125723295193
N           -0.93576926690699       -1.30110093822644       -0.03734018011393
C           -1.48501069269570       -2.63294224115671       -0.06013017210031
H            3.71516025415855        1.21969017001214        1.06651917649355
H            4.00071158540187        1.03797444484117       -0.67673514524858
H            2.69855387724584        2.10961197039059       -0.08812009570913
H            3.57786768330671       -1.64345567560752        0.04446254590113
H           -1.67369772069387        3.09804118332828       -0.02553042875468
H           -2.83820484462996        2.11353074365892       -0.95291541853946
H           -2.89047658872210        2.09683078193555        0.81413349541783
H           -1.17674188981020       -3.17856716763072        0.83264602768901
H           -1.15237790917585       -3.15830563338016       -0.95638627760383
H           -2.56991198181032       -2.53569981127806       -0.07399808911260
H            1.49522800264087       -3.03408765683546       -0.01302310079985
25
 energy: 5.163319145049 xtb: 6.6.1 (8d0f1dd)
C            3.22653715624609        1.18277298124439        0.08723414471047
N            2.28731589961043        0.10636664953724        0.03411942752288
C            2.60939872664335       -1.24407575518254        0.03271230221826
N            1.47387475054281       -2.03324794308876        0.00134296069139
C            0.41359802814382       -1.12027597777681       -0.00963055561068
C            0.89946236984946        0.19587490399450        0.01209340937227
C            0.09367950126184        1.37379273661354       -0.00584454143522
O            0.48330106941757        2.55607370215999       -0.00313510539673
N           -1.29199294807227        1.06503149789018       -0.03176706649245
C           -2.24153162814804        2.17724748724164       -0.05002111353057
C           -1.83099034112753       -0.17898021913497       -0.04870236254144
O           -3.03485600062006       -0.36222487161484       -0.07289778416964
N           -0.94752214670866       -1.29403179309604       -0.03794447074734
C           -1.50650585317923       -2.61425930201482       -0.05991569982470
H            3.71722120262722        1.22221987471204        1.06602333269355
H            3.99173427745910        1.04284183639558       -0.68056612767299
H            2.69852079632927        2.11942859371362       -0.08229772547096
H            3.58735065486054       -1.63864691620953        0.04782457794153
H           -1.67582988738651        3.10834456693299       -0.02546678639876
H           -2.85413827389527        2.13951499584028       -0.95221637723248
H           -2.90641438068676        2.12291495621797        0.81326958447029
H           -1.19128897071395       -3.15914612411291        0.83161329796100
H           -1.16805263248942       -3.13966572418145       -0.95468762535625
H           -2.59047749368102       -2.51185064588242       -0.07316590765751
H            1.66982079165343       -3.12699090802684       -0.01093989189662
25
 energy: 9.903052414433 xtb: 6.6.1 (8d0f1dd)
C            3.22302949494556        1.18249447904945        0.08719770092828
N            2.28496252311689        0.10531305438670        0.03207083754952
C            2.61089542978941       -1.24624424791730        0.03384424250605
N            1.48277375644888       -2.04972240781518        0.00183640583446
C            0.41820805949871       -1.13621213137602       -0.01023849911816
C            0.89437973527056        0.18502087670132        0.01094069788712
C            0.09357538502623        1.36382463235640       -0.00596984848431
O            0.48049672145878        2.54466878487151       -0.00281806651599
N           -1.30133239315082        1.07065648111827       -0.03212079007597
C           -2.24690153135205        2.18558183846147       -0.05020247278874
C           -1.83229556902901       -0.17422266096414       -0.04935400435746
O           -3.03480170567260       -0.36444764697314       -0.07412621503542
N           -0.94913943373551       -1.28952544835772       -0.03821100375679
C           -1.51769639203830       -2.60643873572671       -0.05966535061998
H            3.71603663470398        1.22140758698386        1.06478075883253
H            3.98627225982633        1.04751891588384       -0.68322137930181
H            2.69640089316496        2.12185457980126       -0.07786843946115
H            3.59352235454552       -1.63302106905234        0.04964596899743
H           -1.67851169745145        3.11475290446642       -0.02552148140721
H           -2.86097772956799        2.15133335077828       -0.95177160665372
H           -2.91317545406330        2.13469613987973        0.81247668501415
H           -1.20353036030251       -3.15197711964082        0.83161728687838
H           -1.18117307265894       -3.13312908241869       -0.95420785557129
H           -2.60138702470144       -2.50004646067172       -0.07242863877740
H            1.75258378386431       -3.15510801165269       -0.00965103635524
25
 energy: 10.715003986176 xtb: 6.6.1 (8d0f1dd)
C            3.22216929507201        1.18106058514079        0.08703578283294
N            2.28551827186751        0.10173282840310        0.03125399226614
C            2.60858393934720       -1.24590746472353        0.03451036378163
N            1.48363603983228       -2.05107679238026        0.00218000069834
C            0.41868270718016       -1.13935540733895       -0.01048356125054
C            0.89521846919494        0.18103760067810        0.01061459558194
C            0.09409776028199        1.36227275821147       -0.00596995951799
O            0.48088468694873        2.53965014541364       -0.00249453181747
N           -1.30261591236302        1.07373039952591       -0.03228748154647
C           -2.24786859919185        2.18765772602349       -0.05033485686497
C           -1.83274373383160       -0.17323509837055       -0.04965364317824
O           -3.03335953984152       -0.36678931380876       -0.07470357491719
N           -0.94825483348350       -1.28721396334584       -0.03824118593217
C           -1.52023852816076       -2.60484311048949       -0.05948296216420
H            3.71506327027278        1.21986615585269        1.06421392639028
H            3.98438996469667        1.04956140895177       -0.68445994119560
H            2.69437233624686        2.12068806400318       -0.07598741080204
H            3.59384013206558       -1.63029039190727        0.05005098538965
H           -1.68005710355983        3.11677596061751       -0.02562015885276
H           -2.86199333252056        2.15305916984669       -0.95182298313955
H           -2.91411617975854        2.13639248672370        0.81232801854880
H           -1.20733433768849       -3.15055939238535        0.83184360900792
H           -1.18543193122533       -3.13194003847331       -0.95415153497002
H           -2.60382007303905       -2.49757386395834       -0.07203310793628
H            1.77359189959357       -3.15567185003836       -0.00927048426485
25
 energy: 10.548902431998 xtb: 6.6.1 (8d0f1dd)
C            3.22194679544792        1.18006570675192        0.08693983443509
N            2.28638138605588        0.09914620084536        0.03072300631407
C            2.60613432756467       -1.24555419107692        0.03528064364059
N            1.48214384022000       -2.05009312483721        0.00250912240781
C            0.41793202296212       -1.13949150420506       -0.01066803973422
C            0.89635632277579        0.17975764109997        0.01035303945523
C            0.09467422183284        1.36236876573641       -0.00607097307599
O            0.48163395609866        2.53803767831396       -0.00222224950790
N           -1.30206356752860        1.07463722455339       -0.03238711571189
C           -2.24744509645539        2.18764645373341       -0.05037544159410
C           -1.83327488804172       -0.17308305321597       -0.04978833072749
O           -3.03284127753647       -0.36744758859116       -0.07495504244741
N           -0.94785154132645       -1.28608592973869       -0.03822274119386
C           -1.52027961652255       -2.60485672294193       -0.05940515062103
H            3.71463126162543        1.21866618618051        1.06395446013405
H            3.98376624320560        1.05027233969423       -0.68495295687509
H            2.69284886817583        2.11922765750265       -0.07527419725907
H            3.59245544063611       -1.62915714270714        0.04993227758961
H           -1.68054514117668        3.11720387487962       -0.02566271546116
H           -2.86159837678519        2.15261425170817       -0.95186772173517
H           -2.91362248355224        2.13591902208699        0.81237095195168
H           -1.20735886564807       -3.15017361910573        0.83195186325975
H           -1.18570753240817       -3.13157199348155       -0.95418603470694
H           -2.60380240289225       -2.49793635846311       -0.07185362344137
H            1.77770077120912       -3.15108317255005       -0.00908896894788
25
 energy: 10.317577134500 xtb: 6.6.1 (8d0f1dd)
C            3.22189926626314        1.17985310410268        0.08692236870978
N            2.28680127730030        0.09841740624181        0.03039702824126
C            2.60516471581139       -1.24569545817385        0.03601066145693
N            1.48096330081371       -2.04986568818283        0.00274446417672
C            0.41740858037558       -1.13921476138178       -0.01080301928097
C            0.89666211591450        0.17981703453551        0.01014792758693
C            0.09494228127574        1.36250023673634       -0.00616689262063
O            0.48189421621034        2.53819077310690       -0.00213355075906
N           -1.30161302522578        1.07439948022568       -0.03242522153360
C           -2.24698420271702        2.18728058535168       -0.05036701337852
C           -1.83359580563667       -0.17309836128915       -0.04980395512243
O           -3.03301506503925       -0.36721537844186       -0.07497526791377
N           -0.94798050885314       -1.28586009912557       -0.03819875202136
C           -1.51990624264973       -2.60511234061581       -0.05940764720274
H            3.71456597271816        1.21829621189789        1.06391552856121
H            3.98376953574970        1.05039017463311       -0.68497382530558
H            2.69223657517796        2.11864130286877       -0.07517352290313
H            3.59160127022391       -1.62923631379221        0.04952612826671
H           -1.68040207999479        3.11708309462805       -0.02565620640062
H           -2.86122597711113        2.15224644314150       -0.95185311849590
H           -2.91319238882429        2.13553201170132        0.81241422511686
H           -1.20657026089987       -3.15013617363319        0.83192389889234
H           -1.18499078183664       -3.13148090868348       -0.95421221021805
H           -2.60341748641213       -2.49860426167600       -0.07182608013983
H            1.77719938530222       -3.14809951200352       -0.00899205156521
25
 energy: 10.103343769388 xtb: 6.6.1 (8d0f1dd)
C            3.22185102238293        1.17980885259017        0.08694691889662
N            2.28709731886189        0.09811894050224        0.03002656956671
C            2.60461784823559       -1.24607586703043        0.03715385093098
N            1.47998055013383       -2.05015522284543        0.00304560829263
C            0.41707655190275       -1.13900912748647       -0.01098880390541
C            0.89671236548343        0.18011059037715        0.00990311664468
C            0.09511971582882        1.36250351811756       -0.00627433171609
O            0.48193789139038        2.53857668111065       -0.00213197195502
N           -1.30134224883460        1.07398280327687       -0.03246121069625
C           -2.24662291800039        2.18698721631905       -0.05035816921194
C           -1.83382537626320       -0.17312086026958       -0.04979007202244
O           -3.03329851731359       -0.36691972831184       -0.07492494061743
N           -0.94819414540517       -1.28583938436460       -0.03816659138496
C           -1.51959888157874       -2.60532587507020       -0.05942576123106
H            3.71453055834895        1.21814580664508        1.06395447168279
H            3.98391150795518        1.05049008328261       -0.68485917446197
H            2.69182495128540        2.11828645715526       -0.07514131531474
H            3.59102864279391       -1.62966474658058        0.04864382632856
H           -1.68011035860872        3.11689788505379       -0.02564522945286
H           -2.86094876385154        2.15206314726801       -0.95183070262613
H           -2.91287363113777        2.13533167585733        0.81243801982826
H           -1.20588790617937       -3.15016861366474        0.83186304018120
H           -1.18433903463123       -3.13144963513652       -0.95423110434090
H           -2.60311218161440       -2.49913176337169       -0.07182706305127
H            1.77667970675187       -3.14541423125168       -0.00888508421668
25
 energy: 10.028612612746 xtb: 6.6.1 (8d0f1dd)
C            3.22183307359009        1.17985558142533        0.08702789206885
N            2.28710101008831        0.09826517171426        0.02982066961853
C            2.60471371905177       -1.24639196847548        0.03851058973486
N            1.47980789046400       -2.05070825149187        0.00331935328780
C            0.41714602318780       -1.13900945991472       -0.01117631166448
C            0.89656978035646        0.18029688774870        0.00974571396433
C            0.09511716288061        1.36239841916422       -0.00636000454932
O            0.48177033884861        2.53874153163793       -0.00224224344420
N           -1.30142077537127        1.07380048914652       -0.03249523863543
C           -2.24662417967266        2.18699758488561       -0.05036581392200
C           -1.83379099538469       -0.17314691096358       -0.04976755081570
O           -3.03338758470772       -0.36691043823516       -0.07483129009084
N           -0.94826039961572       -1.28599585075311       -0.03815746914341
C           -1.51961176281179       -2.60534366175923       -0.05944346625568
H            3.71448786677659        1.21822431930999        1.06408479439116
H            3.98407372633247        1.05053210764596       -0.68467535188389
H            2.69184601516460        2.11831238189756       -0.07514756073305
H            3.59107431857401       -1.63003115036953        0.04730116086625
H           -1.67991386369231        3.11679895187724       -0.02565176508117
H           -2.86094078338555        2.15215147194778       -0.95183705846326
H           -2.91286730271042        2.13541062657257        0.81242946577604
H           -1.20591321361345       -3.15025184468415        0.83183586514059
H           -1.18434204647301       -3.13152079542019       -0.95424076000859
H           -2.60313304269207       -2.49910005704928       -0.07184608164903
H            1.77687969275157       -3.14434653368533       -0.00880364236105
