25
 energy: 0.000000000000 xtb: 6.6.1 (8d0f1dd)
C            3.23720163006194        1.16630919979326        0.08434469647475
N            2.29877817382611        0.07527477071623        0.03981603040599
C            2.58028210190900       -1.21425402444508        0.03006176031096
N            1.43813958087363       -1.93419271955128        0.00098261760884
C            0.39035688448383       -1.05887472636071       -0.00790371836672
C            0.93510056364412        0.21347819449412        0.01709077491437
C            0.09450143893243        1.40504303904423       -0.00410947031874
O            0.49712751527797        2.54126714362870       -0.00342325688240
N           -1.25076640035757        1.06271879480407       -0.03085478223738
C           -2.21907211982101        2.15522099834493       -0.05001256985998
C           -1.81739487048744       -0.20012725993278       -0.04692818574614
O           -2.99983886758376       -0.37846417018721       -0.07008878229737
N           -0.92618586207120       -1.30210215599479       -0.03682761578324
C           -1.46982264913417       -2.64643102187190       -0.06029820460571
H            3.71247264356769        1.21471455160235        1.06488849150277
H            4.00791497605742        1.03430808813993       -0.67357694370751
H            2.69910007168542        2.09770118228144       -0.09130154882931
H            3.56654120610678       -1.63682992603973        0.04233140067262
H           -1.67107961066214        3.09322851271934       -0.02552706933167
H           -2.82428953597071        2.09428624779827       -0.95318082946668
H           -2.87644029173232        2.07745725625962        0.81450067533302
H           -1.17061996399332       -3.19584890659852        0.83242232437030
H           -1.14560257411436       -3.17511610292205       -0.95688275822323
H           -2.55549792440841       -2.55659984320617       -0.07459039797972
H            1.38130855184625       -2.94313852034425       -0.01389874181052
25
 energy: 0.027859959980 xtb: 6.6.1 (8d0f1dd)
C            3.23021916843312        1.17673134593790        0.08574111506843
N            2.29096209258606        0.09319772947451        0.03787637007759
C            2.59469345950130       -1.23231021173740        0.03108118048387
N            1.46220292892402       -1.99727578187013        0.00093823983502
C            0.40347132489170       -1.09244938862427       -0.00855600390205
C            0.91618437441429        0.20792998442961        0.01508859898727
C            0.09187824351174        1.39777966441199       -0.00476587716967
O            0.49051202624545        2.56402143211161       -0.00309070891566
N           -1.27071780736763        1.06579651189509       -0.03122030900285
C           -2.23217942298427        2.16769417936029       -0.05005283379680
C           -1.82624600227592       -0.18848318081242       -0.04776981680653
O           -3.02392763327027       -0.36553803646553       -0.07141044737232
N           -0.93700619757539       -1.29985457820511       -0.03732123938644
C           -1.48744395460469       -2.62981749599251       -0.06010212190457
H            3.71337647547336        1.21783373882155        1.06583789420296
H            3.99832542944996        1.03547536222356       -0.67654397727147
H            2.70068310584657        2.11180071671288       -0.08831104728712
H            3.57360134173277       -1.63892967848569        0.04467552223551
H           -1.67848488260811        3.10459326285746       -0.02561261712544
H           -2.84125186184967        2.11815621540864       -0.95276331588074
H           -2.89356661645120        2.10145590240480        0.81378222906740
H           -1.17709214218134       -3.17401891638746        0.83253822903616
H           -1.15284883287120       -3.15374313244479       -0.95617922023566
H           -2.57225791054972       -2.53336042056945       -0.07390969356342
H            1.53912796151529       -3.06765662228310       -0.01291625322624
25
 energy: 16.016249860713 xtb: 6.6.1 (8d0f1dd)
C            3.22202365792209        1.18059098607827        0.08660821047079
N            2.27651918688239        0.10753739233636        0.03437862531642
C            2.59854919148724       -1.24318482345645        0.03311630040788
N            1.48327214823086       -2.06508948678897        0.00131275464479
C            0.41320403511371       -1.13397503392439       -0.00948474426436
C            0.88994578289496        0.19248339928878        0.01236996133562
C            0.08808758494952        1.37889105496650       -0.00529345371294
O            0.47873403493221        2.56145779851667       -0.00224328618708
N           -1.29814008230667        1.07678379679207       -0.03165532221716
C           -2.24867408338543        2.18887175377115       -0.05018375956577
C           -1.83393091527228       -0.16787669350498       -0.04862830245347
O           -3.03815954362338       -0.34976067347442       -0.07314858623866
N           -0.95217553336261       -1.28748774098475       -0.03779197368330
C           -1.51072058390611       -2.60592273536681       -0.05984522212517
H            3.71350422168667        1.21761364302431        1.06517334284108
H            3.98757617506581        1.03565428403219       -0.68026190643784
H            2.70438548593986        2.12324691240548       -0.08349536962906
H            3.57595870106277       -1.63045727498843        0.04795644907231
H           -1.68765720366149        3.12303098758482       -0.02568513938758
H           -2.86127332374037        2.14824609364060       -0.95228943356733
H           -2.91371623569956        2.13168833955566        0.81282203402701
H           -1.18944304356131       -3.14848481702135        0.83078393031021
H           -1.16643313622724       -3.12887476355401       -0.95365830754047
H           -2.59454786027776       -2.50957676422053       -0.07305974018153
H            1.77532600679233       -3.20637703253573       -0.01076316508705
25
 energy: 29.921117192677 xtb: 6.6.1 (8d0f1dd)
C            3.21716020958934        1.17934081409170        0.08648666805544
N            2.27162726629696        0.10656865959280        0.03230989433430
C            2.59739762958896       -1.24755797820538        0.03464834232253
N            1.49643484204199       -2.09580329301678        0.00178569485198
C            0.41866076702218       -1.15460349859994       -0.01024078784843
C            0.88125988387722        0.17974620604286        0.01118135753377
C            0.08582529286366        1.36884679095379       -0.00516765657110
O            0.47373905694392        2.55048373709270       -0.00141248724541
N           -1.31243105212607        1.08815617412052       -0.03197579759496
C           -2.25954771983109        2.20301785613134       -0.05043354081022
C           -1.83785269896832       -0.15734312838746       -0.04936585411744
O           -3.04085702395513       -0.34805196656555       -0.07460439170052
N           -0.95615589107431       -1.27727820514882       -0.03805601259265
C           -1.52477129096901       -2.59196521491479       -0.05956544535233
H            3.71083772305954        1.21580987302126        1.06390394418589
H            3.97999138840113        1.03773704274856       -0.68331276045858
H            2.70415840623735        2.12684520888299       -0.07950192291301
H            3.58121607270637       -1.62293328128208        0.05010879487623
H           -1.69787953017326        3.13647964850241       -0.02582932064490
H           -2.87445401156185        2.16606720869756       -0.95158516411994
H           -2.92693003610609        2.14951644152314        0.81149021548263
H           -1.20126613212702       -3.13378845554561        0.83059706994046
H           -1.17935700162441       -3.11479935196360       -0.95291081388588
H           -2.60846283916579       -2.49461806594103       -0.07220280688636
H            1.91387135698993       -3.28084461965858       -0.00931332269420
25
 energy: 36.556584374451 xtb: 6.6.1 (8d0f1dd)
C            3.21652778004375        1.17717531021414        0.08625922167676
N            2.27098199099830        0.10323300669788        0.03166994778104
C            2.59098146524341       -1.24830040451842        0.03582773072199
N            1.49603446028091       -2.10053065961802        0.00255949360910
C            0.41702006801374       -1.15574656047065       -0.01070594241964
C            0.88013084065096        0.17737395273672        0.01103062018588
C            0.08467466257649        1.36925266801973       -0.00490171832841
O            0.47232857227414        2.54732955555539       -0.00104088477483
N           -1.31668555991179        1.09514131320133       -0.03202754689607
C           -2.26326417522911        2.20823714845230       -0.05056961084542
C           -1.84140713314030       -0.15260159927324       -0.04960877717185
O           -3.04223985670739       -0.34796674785272       -0.07510658414678
N           -0.95790522402785       -1.26998682275737       -0.03816443518806
C           -1.52769917378388       -2.58718314976909       -0.05944435712386
H            3.70963963957069        1.21413657364535        1.06342853782760
H            3.97815634531280        1.03800840410469       -0.68448107623004
H            2.70382352088679        2.12585715278196       -0.07847068760304
H            3.57834477864276       -1.61958323819288        0.05040387659070
H           -1.70233079116050        3.14169659509510       -0.02595479226576
H           -2.87801612717194        2.17002647242736       -0.95181928300525
H           -2.93046521630591        2.15353959575730        0.81149426035482
H           -1.20327246253919       -3.12841398254260        0.83054359838071
H           -1.18187466070337       -3.10963768441393       -0.95267110342993
H           -2.61142223350047       -2.49253276615348       -0.07187427543570
H            1.97015315762318       -3.31949553095478       -0.00934231611666
25
 energy: 42.756774431510 xtb: 6.6.1 (8d0f1dd)
C            3.21449877434521        1.17378358329945        0.08577904338569
N            2.26356532480787        0.10298330446492        0.03118871915562
C            2.57332867372429       -1.24700545389001        0.03824905251636
N            1.49127655113418       -2.11073290256659        0.00568321733358
C            0.41099147038992       -1.15647283328677       -0.01133830777320
C            0.87222238360078        0.17830329619354        0.01097077886767
C            0.08204134596030        1.37242386601903       -0.00437051477384
O            0.46757355330494        2.54846521102653       -0.00110734904944
N           -1.32415915894305        1.10608861898129       -0.03194639610371
C           -2.26813655406422        2.21750426212349       -0.05064639086398
C           -1.84730939179836       -0.14304869138468       -0.04981393051992
O           -3.04667936276190       -0.34207822834969       -0.07535871806492
N           -0.96507106264725       -1.25760337422643       -0.03863710899394
C           -1.53242931786347       -2.57870122612531       -0.05945162526504
H            3.70760855894740        1.20984862465105        1.06255700498183
H            3.97510703067099        1.03385713188240       -0.68542273322573
H            2.70661778451468        2.12612139903829       -0.07825417607044
H            3.56429721944049       -1.61335001228088        0.05005885200616
H           -1.70659554750971        3.15026983935117       -0.02602150520251
H           -2.88226771553468        2.17740246682704       -0.95224027964702
H           -2.93472017154252        2.16103966038661        0.81180512411373
H           -1.20340166217861       -3.11890366588058        0.82940883246474
H           -1.18253071692133       -3.10052640172912       -0.95139641795449
H           -2.61618751108110       -2.49114482961808       -0.07172115183019
H            2.09257416994134       -3.40949504273463       -0.01094012333971
25
 energy: 37.473392807942 xtb: 6.6.1 (8d0f1dd)
C            3.21196102490060        1.16699876069125        0.08533413990125
N            2.24747125432899        0.10307218657407        0.03142598496253
C            2.53052935539702       -1.24265977800822        0.03948337320674
N            1.47113439788732       -2.11599856756263        0.00950136140547
C            0.39628340210220       -1.14550629809761       -0.01203177691495
C            0.85874987125083        0.18826278563085        0.01097787829774
C            0.07790621964376        1.38409771780450       -0.00380126002618
O            0.45817543718749        2.55492985376434       -0.00140390516820
N           -1.33228540246100        1.12401726940952       -0.03185701979328
C           -2.27359180744539        2.23044357080260       -0.05082828097238
C           -1.85463319150880       -0.12918560412771       -0.04979699109516
O           -3.05228583748221       -0.33126430474591       -0.07554388742064
N           -0.97763781099604       -1.23565941370401       -0.03880944056949
C           -1.53784927954052       -2.56557001151014       -0.05926246590682
H            3.70491601984166        1.20269408977572        1.06123572183788
H            3.97125167703631        1.02617281096788       -0.68611493911458
H            2.71297098814191        2.12607979212314       -0.07797143220723
H            3.52851606432027       -1.60800026392758        0.04929183350653
H           -1.71109164004513        3.16177562618668       -0.02621324439769
H           -2.88622636648344        2.18588766473830       -0.95291842553630
H           -2.93868476363577        2.16970282905242        0.81218977511569
H           -1.20231485684979       -3.10607673167152        0.82693373626562
H           -1.18194260904997       -3.08804682666268       -0.94841893812647
H           -2.62168639990754       -2.48948972180720       -0.07148848346850
H            2.31257892130348       -3.57764883352406       -0.01287941763425
25
 energy: 32.571608221821 xtb: 6.6.1 (8d0f1dd)
C            3.20909557881217        1.15967632487233        0.08522781737151
N            2.23222757546197        0.10045676211808        0.03300099077012
C            2.48427516067669       -1.24005453160089        0.03799588019511
N            1.44532891853353       -2.10763603206518        0.00882875001209
C            0.38078952310748       -1.12634290924773       -0.00998272265132
C            0.84885027446271        0.20200868922600        0.01099690626149
C            0.07086560833155        1.40136500053976       -0.00482678490740
O            0.44719789628900        2.56337173352745       -0.00102014285029
N           -1.33364554330655        1.13904373807987       -0.03213192659180
C           -2.27658045125702        2.24052931639919       -0.05100212704370
C           -1.85931106392127       -0.12069854662140       -0.04973102541636
O           -3.05629159699207       -0.31879748378439       -0.07579069171366
N           -0.98656873771551       -1.21866678335848       -0.03740528438671
C           -1.54025341329167       -2.55571211364371       -0.05878362424487
H            3.70175961132944        1.19468371659945        1.06023808850895
H            3.96728073483410        1.01661904488396       -0.68589888749788
H            2.71917799350235        2.12476249295499       -0.07842242989794
H            3.48642354590476       -1.60998190535913        0.04926754947944
H           -1.71666921288640        3.17280244018425       -0.02654793353643
H           -2.88862610742385        2.19184527497032       -0.95301681999505
H           -2.94102959076861        2.17581687061301        0.81196448036584
H           -1.19865921209371       -3.09505842471352        0.82504933947271
H           -1.17820181433223       -3.07670523180690       -0.94566158968106
H           -2.62445217327003       -2.48854497756093       -0.07133385087656
H            2.51923116394937       -3.73575386303436       -0.01398006499897
25
 energy: 23.201074973463 xtb: 6.6.1 (8d0f1dd)
C            3.21074965504739        1.15621028657023        0.08477985771207
N            2.22822495459408        0.09227330924835        0.03770618246718
C            2.43046588849828       -1.23559958479043        0.03223311695887
N            1.37502884386679       -2.02492857077762        0.00454214761022
C            0.35260788866340       -1.05907681851347       -0.00687630212188
C            0.85676873544538        0.23886578154251        0.01205123775484
C            0.06083496721875        1.43572956327799       -0.00577476439036
O            0.44263720556737        2.58325322527031       -0.00066053923500
N           -1.31352932887890        1.13870474442529       -0.03215499932427
C           -2.26942668666900        2.23481690784029       -0.05090256462934
C           -1.85970841041783       -0.13157048805427       -0.04944322258412
O           -3.05811519958667       -0.30478762397178       -0.07536329824795
N           -0.99188513303807       -1.21321419630107       -0.03594406315573
C           -1.53327135860350       -2.55861647604465       -0.05872963330085
H            3.70048464667074        1.19127453358861        1.05979949074169
H            3.96900080886400        1.01077453345855       -0.68419531617770
H            2.71977181918412        2.11938653429667       -0.08117900458094
H            3.43799842815010       -1.62871779415239        0.04944558417346
H           -1.71699624834157        3.17149284117084       -0.02648575098799
H           -2.88263280582900        2.18553787916107       -0.95189715742652
H           -2.93495331572227        2.16917837102925        0.81094610011231
H           -1.19230027500585       -3.09565675445446        0.82487176199026
H           -1.17107573678571       -3.07648881005118       -0.94558225191024
H           -2.61789920083356       -2.49050939190164       -0.07164013630657
H            2.66943452587773       -3.91930339969497       -0.01251257899418
25
 energy: 20.531609579257 xtb: 6.6.1 (8d0f1dd)
C            3.21363097606870        1.16221348126559        0.08388937038697
N            2.23336333386179        0.09361875417454        0.04012942683140
C            2.40596635657124       -1.23291008376498        0.03047293154441
N            1.30343139059277       -1.95179268867138        0.00241729837067
C            0.33207392860342       -1.00011992050868       -0.00652172362153
C            0.86822518179902        0.27452076170128        0.01359344293500
C            0.04846344122079        1.46478001909776       -0.00461096736503
O            0.43929573774307        2.60867683045876       -0.00023095976764
N           -1.30186227032989        1.14033376494960       -0.03177370783880
C           -2.26844967486591        2.23335770008364       -0.05080634331008
C           -1.86467809868708       -0.13761325692822       -0.04951372849285
O           -3.06495859422695       -0.28467609506693       -0.07514874017684
N           -1.00138743796658       -1.20815057237540       -0.03694880507232
C           -1.52752688560663       -2.55878835085663       -0.05910054360963
H            3.70086596759839        1.19336119161885        1.05992780684501
H            3.97197960848243        1.01094831051516       -0.68339967242729
H            2.71913164761761        2.12122020713536       -0.08374896943796
H            3.41218043893573       -1.64056428328341        0.04838813639001
H           -1.71994809645887        3.17277230594462       -0.02620429888180
H           -2.88017628830019        2.18030798084483       -0.95216102917538
H           -2.93247073648408        2.16352601106117        0.81141074972630
H           -1.18545748273768       -3.09412799057814        0.82458734307839
H           -1.16409715479495       -3.07473274405739       -0.94588851216420
H           -2.61254692557790       -2.49171757187063       -0.07196404667259
H            2.78716630487798       -4.15541515871737       -0.00976056194696
25
 energy: 20.797733296041 xtb: 6.6.1 (8d0f1dd)
C            3.21547348882206        1.16913074968072        0.08414561549811
N            2.23491757529692        0.10367919931897        0.04047107694299
C            2.40335090052978       -1.23055160306714        0.03050610305866
N            1.26586508578738       -1.91667942004712        0.00123671699226
C            0.32480631147493       -0.96580267480459       -0.00679071662429
C            0.87364126309760        0.30309753847630        0.01485032846178
C            0.04029859124510        1.48494054848022       -0.00435370462586
O            0.43419516904823        2.63305657044945       -0.00089617568601
N           -1.30187417073984        1.14694460197629       -0.03170947056861
C           -2.27278845038231        2.23655140616160       -0.05085700684508
C           -1.87112064543865       -0.13403934711714       -0.04920081454174
O           -3.07208926021897       -0.26987326787709       -0.07454104883738
N           -1.00882642156521       -1.19978201773459       -0.03758509422618
C           -1.52045306642185       -2.55417925146615       -0.05901801333496
H            3.70239375986574        1.19760639307964        1.06077536964566
H            3.97452608802005        1.01330502571428       -0.68215121664223
H            2.72038671395410        2.12624092971773       -0.08462293034396
H            3.40026072687377       -1.64505273702748        0.04661407215264
H           -1.72377305699145        3.17535720686781       -0.02639094378894
H           -2.88158547099786        2.17767679990577       -0.95300784349789
H           -2.93378772973098        2.16102801211359        0.81237643236092
H           -1.17770696112269       -3.09065803660607        0.82443702160802
H           -1.15604892249881       -3.07131101959278       -0.94540282148916
H           -2.60607542216482       -2.49335294525711       -0.07210111342452
H            2.84822857219396       -4.36830405917306       -0.00974992609695
25
 energy: 20.787371745261 xtb: 6.6.1 (8d0f1dd)
C            3.21574500915088        1.17511944662401        0.08436070456261
N            2.23206972190571        0.11686002763480        0.03986207688998
C            2.41206616783856       -1.22145622280606        0.03090009460469
N            1.26577992058549       -1.90294697851403        0.00141771489051
C            0.32631954031265       -0.95388017264476       -0.00689897823315
C            0.87383498967155        0.31805088305600        0.01586068548777
C            0.03785023567973        1.49252439411168       -0.00412422421209
O            0.42992455418376        2.64503478136672       -0.00138252749629
N           -1.30489268857368        1.15025407334399       -0.03170448588392
C           -2.27497163542797        2.23891598368160       -0.05085506323550
C           -1.87402906542877       -0.13010863418913       -0.04914173828527
O           -3.07497573426122       -0.26658591471087       -0.07435262811734
N           -1.01013419210901       -1.19580574238087       -0.03767254321848
C           -1.51642936800427       -2.55029766707329       -0.05896942327805
H            3.70362982802161        1.20120845052465        1.06107741517822
H            3.97536533355674        1.01569973426910       -0.68150853472228
H            2.72275442689304        2.13268445147676       -0.08495242300684
H            3.40051840004264       -1.63833873483980        0.04612041278954
H           -1.72431321595768        3.17639642454969       -0.02629542197240
H           -2.88239320286640        2.17846500080091       -0.95326868713322
H           -2.93471092608376        2.16169004159828        0.81261222581540
H           -1.17503938144357       -3.08859003153818        0.82458287182713
H           -1.15304350198618       -3.06922966841178       -0.94543159492230
H           -2.60273425599063       -2.49244478700886       -0.07228942439399
H            2.84402370822701       -4.50419053674851       -0.01091260778744
25
 energy: 20.372868284435 xtb: 6.6.1 (8d0f1dd)
C            3.21761947730864        1.18320750713099        0.08488101155552
N            2.22848228261276        0.13592423457424        0.03914379831145
C            2.42837708622054       -1.20280328549552        0.03147163178477
N            1.28863130255892       -1.89146770177538        0.00219655109184
C            0.33270214998414       -0.95262313361062       -0.00685851537670
C            0.87189094757611        0.32657594946458        0.01653083041711
C            0.03885322738760        1.49438688887841       -0.00433661911571
O            0.42624300658029        2.65114317950434       -0.00190567165229
N           -1.30839832086915        1.15145618767418       -0.03182327306351
C           -2.27636135716567        2.23973028401868       -0.05089740660077
C           -1.87318175546628       -0.12607470847626       -0.04904617227871
O           -3.07399918614571       -0.26962570929290       -0.07421157550340
N           -1.00650758880273       -1.19518958696200       -0.03736230328913
C           -1.51330824010077       -2.54774747951866       -0.05883029418771
H            3.70622477256900        1.20532916406133        1.06176323340784
H            3.97688183423654        1.01864717232428       -0.68107574295012
H            2.72849910350757        2.14226965964839       -0.08477405124927
H            3.40811715363641       -1.62609911087917        0.04604799630550
H           -1.72499780969172        3.17665826837567       -0.02640987887471
H           -2.88354456631305        2.17931087224848       -0.95329844663836
H           -2.93579012456972        2.16255153629573        0.81262392190509
H           -1.17391376627896       -3.08815447274429        0.82480278442771
H           -1.15184939167438       -3.06873478656171       -0.94549663115770
H           -2.60044323972825       -2.49112678746279       -0.07222825943110
H            2.78198767056411       -4.61851553924796       -0.01387302169036
25
 energy: 19.974706228562 xtb: 6.6.1 (8d0f1dd)
C            3.22015888999017        1.19141080148348        0.08504809625764
N            2.22829235814758        0.15138333316351        0.03865972247704
C            2.44334215235066       -1.18350758499994        0.03218801010847
N            1.32132125804190       -1.88502487217612        0.00355337324722
C            0.34074529073307       -0.96153449162647       -0.00669242301157
C            0.86965356115769        0.32460154711910        0.01647371438095
C            0.04222429957389        1.49110807620476       -0.00425268496788
O            0.42467183083499        2.64947221308092       -0.00176313501351
N           -1.31039609610968        1.15058507284880       -0.03179153084505
C           -2.27654284708733        2.23896249725772       -0.05088993559742
C           -1.86847119793337       -0.12398466506479       -0.04907013910870
O           -3.06919894673595       -0.27695967697165       -0.07441975683616
N           -0.99928515016010       -1.19747626928063       -0.03698384679041
C           -1.51198433172268       -2.54771305983825       -0.05884928370227
H            3.70809322828548        1.20995058092386        1.06220887873363
H            3.97773675982658        1.02274994750706       -0.68156920495337
H            2.73312789767016        2.15118948661081       -0.08462121185261
H            3.41885891658054       -1.61655421072786        0.04658910359375
H           -1.72490351699531        3.17595008512802       -0.02630078587551
H           -2.88422047866338        2.17999466748789       -0.95337366965330
H           -2.93661755479804        2.16314050862995        0.81257779580097
H           -1.17415749482947       -3.08913385698788        0.82489699617852
H           -1.15207323517605       -3.06960897822494       -0.94575791082657
H           -2.59933792648640       -2.48956175873359       -0.07226291826529
H            2.69117700144125       -4.67041079064170       -0.01656335733130
25
 energy: 19.845071067104 xtb: 6.6.1 (8d0f1dd)
C            3.22174048123433        1.19489324563436        0.08523966606737
N            2.23109045979809        0.15458478668892        0.03866417210893
C            2.44727599893468       -1.17640150819772        0.03241193016743
N            1.33680984795672       -1.88498761522036        0.00397417701764
C            0.34439106685462       -0.96914789913497       -0.00672823486914
C            0.86898874652821        0.31871394745378        0.01574574260806
C            0.04427977244679        1.48812624576398       -0.00445927153496
O            0.42520473361015        2.64544804518162       -0.00175466862915
N           -1.31036908539083        1.14964941818645       -0.03181632133528
C           -2.27638763594982        2.23801932273262       -0.05091348229231
C           -1.86509141351124       -0.12429464082608       -0.04899788759558
O           -3.06579477691926       -0.28120239420411       -0.07436561706820
N           -0.99507675475481       -1.19900657222453       -0.03684609304257
C           -1.51233115657795       -2.54893199774515       -0.05878948276284
H            3.70873130342376        1.21174151490654        1.06256101375394
H            3.97814642056766        1.02484430790824       -0.68167768039386
H            2.73442267156292        2.15438415761850       -0.08424449138412
H            3.42379560086510       -1.61401814243687        0.04686763345190
H           -1.72496259097818        3.17537285981460       -0.02643141343236
H           -2.88454498557377        2.17965464009014       -0.95337785386429
H           -2.93679975084784        2.16294048122372        0.81263473156546
H           -1.17455752467297       -3.08999507631564        0.82495249634156
H           -1.15269328804207       -3.07047788271574       -0.94575600186329
H           -2.59935886828207       -2.48918057005881       -0.07206265665828
H            2.64530539565400       -4.66170007195147       -0.01779651020878
25
 energy: 19.815081879832 xtb: 6.6.1 (8d0f1dd)
C            3.22191745929796        1.19546628105004        0.08504492640595
N            2.23284963011009        0.15338386785774        0.03877373809599
C            2.44658254822933       -1.17596870563168        0.03260516743604
N            1.33904689979122       -1.88624871644616        0.00424115094114
C            0.34489248851288       -0.97143584146486       -0.00669133198372
C            0.86887474196487        0.31598958561446        0.01549688843781
C            0.04463405707416        1.48728020174629       -0.00424027575929
O            0.42586219041406        2.64368350223660       -0.00139978348218
N           -1.30997207147490        1.14940395069620       -0.03172847088960
C           -2.27613931250460        2.23782706750564       -0.05087364703789
C           -1.86433026267577       -0.12498318224685       -0.04904415002739
O           -3.06504679356922       -0.28182433144304       -0.07450970108674
N           -0.99434665373898       -1.19911734781604       -0.03689409636572
C           -1.51279454296902       -2.54960080269416       -0.05888712056152
H            3.70859983675691        1.21212659465785        1.06235982597318
H            3.97798648648380        1.02528420144644       -0.68197132838323
H            2.73359490282550        2.15423751395874       -0.08446373979368
H            3.42461362217681       -1.61361440499565        0.04707101345051
H           -1.72469404724657        3.17522528250362       -0.02628606730965
H           -2.88424930515950        2.17961115909213       -0.95341130742227
H           -2.93666934159431        2.16282313345849        0.81262425920744
H           -1.17477153360872       -3.09018650752828        0.82486368206330
H           -1.15282103971261       -3.07063458090461       -0.94583930193290
H           -2.59956518461459       -2.48930857666329       -0.07220151306951
H            2.63815989316744       -4.65039074181757       -0.01760492075879
25
 energy: 19.809855549758 xtb: 6.6.1 (8d0f1dd)
C            3.22203095917502        1.19544406797440        0.08518910118067
N            2.23345015708667        0.15274537924686        0.03879777067586
C            2.44597987135196       -1.17621945079316        0.03252200564653
N            1.33873891190882       -1.88665296978098        0.00407856742203
C            0.34484512652028       -0.97152971411695       -0.00677264068602
C            0.86878679353106        0.31559424242882        0.01527937460169
C            0.04451057723571        1.48737070037478       -0.00443037443645
O            0.42603035912075        2.64351094677044       -0.00157445747271
N           -1.30984695940154        1.14948550105297       -0.03179188635660
C           -2.27622374700068        2.23780302844934       -0.05090144967395
C           -1.86434196110103       -0.12529574382736       -0.04899260744622
O           -3.06506870474792       -0.28161625445267       -0.07436953581112
N           -0.99444081249794       -1.19883690999153       -0.03691015760996
C           -1.51289148855758       -2.54973410796370       -0.05880692138866
H            3.70865202560216        1.21193062738623        1.06252187379828
H            3.97817858123617        1.02528049719952       -0.68174656310572
H            2.73353494001969        2.15405837069413       -0.08426012566448
H            3.42453136755936       -1.61350454501011        0.04698018982755
H           -1.72488239117464        3.17525761382924       -0.02641333205397
H           -2.88439029472398        2.17943968274173       -0.95337437788637
H           -2.93665344007748        2.16274504583585        0.81265077105444
H           -1.17463489771486       -3.09008091365469        0.82494054655668
H           -1.15280988563527       -3.07058078917340       -0.94575565436184
H           -2.59958334969550       -2.48940229923882       -0.07204863016574
H            2.63871292991699       -4.64818340380892       -0.01777759049662
