25
 energy: 0.000000000000 xtb: 6.6.1 (8d0f1dd)
C            3.23720163006194        1.16630919979326        0.08434469647475
N            2.29877817382611        0.07527477071623        0.03981603040599
C            2.58028210190900       -1.21425402444508        0.03006176031096
N            1.43813958087363       -1.93419271955128        0.00098261760884
C            0.39035688448383       -1.05887472636071       -0.00790371836672
C            0.93510056364412        0.21347819449412        0.01709077491437
C            0.09450143893243        1.40504303904423       -0.00410947031874
O            0.49712751527797        2.54126714362870       -0.00342325688240
N           -1.25076640035757        1.06271879480407       -0.03085478223738
C           -2.21907211982101        2.15522099834493       -0.05001256985998
C           -1.81739487048744       -0.20012725993278       -0.04692818574614
O           -2.99983886758376       -0.37846417018721       -0.07008878229737
N           -0.92618586207120       -1.30210215599479       -0.03682761578324
C           -1.46982264913417       -2.64643102187190       -0.06029820460571
H            3.71247264356769        1.21471455160235        1.06488849150277
H            4.00791497605742        1.03430808813993       -0.67357694370751
H            2.69910007168542        2.09770118228144       -0.09130154882931
H            3.56654120610678       -1.63682992603973        0.04233140067262
H           -1.67107961066214        3.09322851271934       -0.02552706933167
H           -2.82428953597071        2.09428624779827       -0.95318082946668
H           -2.87644029173232        2.07745725625962        0.81450067533302
H           -1.17061996399332       -3.19584890659852        0.83242232437030
H           -1.14560257411436       -3.17511610292205       -0.95688275822323
H           -2.55549792440841       -2.55659984320617       -0.07459039797972
H            1.38130855184625       -2.94313852034425       -0.01389874181052
25
 energy: -1.160192601875 xtb: 6.6.1 (8d0f1dd)
C            3.23136641897266        1.17703005301942        0.08588581428102
N            2.29327966817237        0.09307122934846        0.03784558148406
C            2.59668148006562       -1.23260126545500        0.03100365357143
N            1.45960004821638       -1.99095196380810        0.00092309889597
C            0.40335557617937       -1.08942356382273       -0.00858120549430
C            0.91797927347219        0.20855345415966        0.01504236885635
C            0.09306065098490        1.39663762733877       -0.00485633497224
O            0.49165721805317        2.56285895852097       -0.00323126565073
N           -1.26970008394563        1.06368116979662       -0.03123385039119
C           -2.23098318661114        2.16539595295771       -0.05002470289737
C           -1.82589087826064       -0.19029741506962       -0.04777157535574
O           -3.02353468077682       -0.36789122449604       -0.07134974426888
N           -0.93637976208911       -1.30055959623480       -0.03733713118246
C           -1.48649210091743       -2.63124636486296       -0.06011590602719
H            3.71412301200982        1.21869145623858        1.06614111182403
H            3.99928990028196        1.03663075362037       -0.67665150682125
H            2.69959452500014        2.11081975686998       -0.08820673486097
H            3.57594834769854       -1.64091320835668        0.04460705796302
H           -1.67636148395377        3.10165696866825       -0.02557470032469
H           -2.83996054155247        2.11623115668381       -0.95280815299217
H           -2.89225743365410        2.09953081554804        0.81391589620589
H           -1.17710661134762       -3.17604103733428        0.83261904433406
H           -1.15281500965091       -3.15577657299933       -0.95630562201409
H           -2.57134344631183       -2.53420773507079       -0.07394329208618
H            1.51910376790055       -3.05185080308829       -0.01295800592907
25
 energy: 10.604102278471 xtb: 6.6.1 (8d0f1dd)
C            3.22374774660206        1.18160696197366        0.08689125827168
N            2.28143013225669        0.10685847049456        0.03422151831782
C            2.60441296279061       -1.24370358430562        0.03297587966003
N            1.48003135402530       -2.05093007720740        0.00133759232339
C            0.41384313588593       -1.12883051334709       -0.00957981412296
C            0.89412292431557        0.19317635620062        0.01219871841000
C            0.09064826423670        1.37578132490317       -0.00554053079847
O            0.48104731305334        2.55827973130009       -0.00259116429739
N           -1.29560198609794        1.07130251961952       -0.03170846187012
C           -2.24558106902042        2.18381736906757       -0.05010935774923
C           -1.83256098435695       -0.17304387710183       -0.04868498044256
O           -3.03671024133552       -0.35547707222294       -0.07307334430072
N           -0.94996774297577       -1.29084661298314       -0.03788341803819
C           -1.50942578897867       -2.60964024731724       -0.05988122240262
H            3.71498222208590        1.21963376554651        1.06552187645378
H            3.98906978827955        1.03885284739064       -0.68046453584849
H            2.70143192610143        2.12155118505900       -0.08290179836651
H            3.58228032218878       -1.63372275138596        0.04800213473229
H           -1.68247300899771        3.11665088631813       -0.02558437317778
H           -2.85836260382466        2.14493536089712       -0.95220306670264
H           -2.91074173359174        2.12836259341940        0.81295896580717
H           -1.19091678893256       -3.15312023077901        0.83121861955732
H           -1.16783302190114       -3.13358252069116       -0.95419063162665
H           -2.59330097229108       -2.50996029666840       -0.07308548849488
H            1.72864251841851       -3.16892298600814       -0.01081047914702
25
 energy: 19.125424366525 xtb: 6.6.1 (8d0f1dd)
C            3.21955213888140        1.18078462695539        0.08678812301378
N            2.27810160974276        0.10547344905224        0.03220045245681
C            2.60509572900183       -1.24686176932204        0.03429342156735
N            1.49143622797070       -2.07384132473017        0.00180765768467
C            0.41914583554448       -1.14720337911799       -0.01026626552828
C            0.88768091380389        0.18101119573386        0.01105071012338
C            0.08956853962368        1.36550871523098       -0.00551745388887
O            0.47759572273729        2.54651719835191       -0.00197596843582
N           -1.30707863691339        1.07956963502562       -0.03204212956007
C           -2.25355682960611        2.19480446355792       -0.05032704210014
C           -1.83494627373019       -0.16579760641242       -0.04939060403584
O           -3.03770400979786       -0.35615202657330       -0.07443365692123
N           -0.95235510292663       -1.28386668072833       -0.03815635270497
C           -1.52208917196043       -2.59902914710677       -0.05961790125853
H            3.71294220321266        1.21833674712153        1.06425815755042
H            3.98252246129008        1.04232019304008       -0.68334847802223
H            2.69995094161691        2.12434232315320       -0.07870020635160
H            3.58867882992657       -1.62696124975546        0.05001761700428
H           -1.68895701947640        3.12641692618302       -0.02568028575091
H           -2.86826792042544        2.15955196237960       -0.95160263653783
H           -2.92063352487859        2.14295955733683        0.81185724054967
H           -1.20332741143083       -3.14253617084766        0.83117364715818
H           -1.18125374748281       -3.12363283580696       -0.95364008842688
H           -2.60574905968287       -2.49642412110612       -0.07227251127101
H            1.83586222289551       -3.21626207944293       -0.00944155016703
25
 energy: 21.373738374337 xtb: 6.6.1 (8d0f1dd)
C            3.21903332637191        1.17907476238082        0.08661554054945
N            2.27863793449177        0.10177325486083        0.03161917394088
C            2.60165245018115       -1.24696927673528        0.03501096163489
N            1.49165361160846       -2.07532437657022        0.00213918671823
C            0.41891044620486       -1.14871793547693       -0.01051928551400
C            0.88842150925416        0.17803889645469        0.01085703753825
C            0.08951449385338        1.36504573694115       -0.00543831645763
O            0.47766886836565        2.54255001308668       -0.00160166874019
N           -1.30876200344099        1.08361190958688       -0.03215413591775
C           -2.25525787333565        2.19737681584833       -0.05044746481579
C           -1.83632296624882       -0.16389697363619       -0.04963228768370
O           -3.03712729722951       -0.35769370058771       -0.07492476781934
N           -0.95203791972863       -1.28011662126281       -0.03816558408333
C           -1.52398654482660       -2.59677656907558       -0.05946744024919
H            3.71194351101777        1.21697854637560        1.06382381427986
H            3.98104803464504        1.04350960219905       -0.68437701440893
H            2.69850483908587        2.12295673191940       -0.07745834343986
H            3.58802078065414       -1.62438683585829        0.05031115123171
H           -1.69159597369261        3.12915614365874       -0.02578311795579
H           -2.86991078336774        2.16124503867941       -0.95171869330169
H           -2.92222009536981        2.14465638384003        0.81178656075877
H           -1.20571187840594       -3.14014450166767        0.83132514420104
H           -1.18406027225389       -3.12139785907627       -0.95358230928482
H           -2.60760935831792       -2.49467336057812       -0.07194150097742
H            1.86180782842019       -3.22684722313450       -0.00924274405635
25
 energy: 22.293524048259 xtb: 6.6.1 (8d0f1dd)
C            3.21914705980805        1.17804172076422        0.08649664360623
N            2.27974055066135        0.09896779679448        0.03132474021445
C            2.59807368562163       -1.24679582013304        0.03587127307148
N            1.48908081820653       -2.07315465048860        0.00252566212464
C            0.41725869955490       -1.14703405648397       -0.01076155783238
C            0.88975802873107        0.17776006258247        0.01071556859932
C            0.08959717186503        1.36613447537912       -0.00549819552752
O            0.47807030561583        2.54171225500430       -0.00136989027072
N           -1.30835871548543        1.08506046277142       -0.03220821982332
C           -2.25514057309714        2.19761554313696       -0.05045485287830
C           -1.83763612072806       -0.16331828699658       -0.04970156509867
O           -3.03719579860237       -0.35787094798438       -0.07503931637310
N           -0.95213144394691       -1.27798765695827       -0.03815099365689
C           -1.52345357260799       -2.59650286438792       -0.05944409205744
H            3.71151097960032        1.21624418366897        1.06365164154200
H            3.98091577502485        1.04380838774447       -0.68461310302570
H            2.69737402913698        2.12146636349558       -0.07732796088126
H            3.58574139520490       -1.62326828804905        0.05005648452514
H           -1.69255048133525        3.12989780274683       -0.02580455018604
H           -2.86980789807199        2.16085810415064       -0.95173909167922
H           -2.92201230363768        2.14425837758575        0.81187779712440
H           -1.20461406525377       -3.13914868491850        0.83137071073800
H           -1.18314619919276       -3.12036719236086       -0.95365454426071
H           -2.60709127431883       -2.49568112625006       -0.07185874218477
H            1.86908461518293       -3.23166735864194       -0.00922994966229
25
 energy: 22.678856509925 xtb: 6.6.1 (8d0f1dd)
C            3.21927882798308        1.17801684172110        0.08646002815358
N            2.28052839556858        0.09809114491406        0.03117370638153
C            2.59656097800201       -1.24689049821631        0.03671444097333
N            1.48714734693578       -2.07148541563594        0.00284081037073
C            0.41620797740635       -1.14553305957310       -0.01098712332867
C            0.89043547767539        0.17856129828937        0.01059037210510
C            0.08962229059636        1.36696141033068       -0.00556303667428
O            0.47819715483160        2.54242099006576       -0.00133782504512
N           -1.30774119172126        1.08492228114121       -0.03221398731919
C           -2.25468592052926        2.19722728933926       -0.05042637814989
C           -1.83825215037887       -0.16331200859763       -0.04966319369183
O           -3.03754993082308       -0.35736662864431       -0.07494682515095
N           -0.95242378394816       -1.27743153248983       -0.03814119863660
C           -1.52277608415909       -2.59674357050353       -0.05948354401360
H            3.71140874815636        1.21634470728778        1.06366545963797
H            3.98122301540694        1.04395309825361       -0.68447510178027
H            2.69681360023054        2.12095641813332       -0.07755502991841
H            3.58446374810846       -1.62325293531177        0.04951068369929
H           -1.69261912744721        3.12986606852233       -0.02578085220960
H           -2.86947802984653        2.16044261112602       -0.95168828473485
H           -2.92163312210019        2.14382382259764        0.81191660773979
H           -1.20340014155918       -3.13894072064684        0.83131633714342
H           -1.18194725542674       -3.12009994383675       -0.95370478131197
H           -2.60642174624690       -2.49653592333337       -0.07189331152664
H            1.86925559122124       -3.23496714276073       -0.00929407656560
25
 energy: 23.244222026084 xtb: 6.6.1 (8d0f1dd)
C            3.21939258103134        1.17839838764596        0.08646554443627
N            2.28133092827950        0.09779909583885        0.03099942032337
C            2.59563491340978       -1.24720115063668        0.03817075903303
N            1.48534182978469       -2.06978124437642        0.00331373732925
C            0.41537730939850       -1.14391160876001       -0.01137417691752
C            0.89095878789128        0.17998580627428        0.01040238429165
C            0.08955881599142        1.36784619882686       -0.00563406195314
O            0.47812664873585        2.54376084789380       -0.00141783132144
N           -1.30713831307196        1.08444294384406       -0.03221086517448
C           -2.25427947778552        2.19680139807688       -0.05039218090973
C           -1.83867802774854       -0.16337050369824       -0.04958539315130
O           -3.03802371246894       -0.35657497989388       -0.07475157727045
N           -0.95279296296657       -1.27722366051299       -0.03814460840220
C           -1.52213032460979       -2.59697529202770       -0.05954481634472
H            3.71136118315483        1.21684629637184        1.06376137599093
H            3.98168570335768        1.04426634997795       -0.68419323135831
H            2.69633622700705        2.12080329862562       -0.07785597261772
H            3.58352869449389       -1.62359012328826        0.04837115219380
H           -1.69257718886146        3.12974651023554       -0.02574285145981
H           -2.86919864443264        2.16009408358842       -0.95163365756285
H           -2.92133502260646        2.14344710900973        0.81193698182429
H           -1.20230948786813       -3.13885066705912        0.83123138470505
H           -1.18082177805478       -3.11996383544603       -0.95374291926527
H           -2.60578695267867       -2.49710829285522       -0.07196144022918
H            1.86865293855386       -3.24065836548321       -0.00943326004225
25
 energy: 23.780992753263 xtb: 6.6.1 (8d0f1dd)
C            3.21942057922308        1.17881088754363        0.08651248657787
N            2.28150820040511        0.09820512855951        0.03092484090571
C            2.59577519482251       -1.24739549164626        0.03964885824440
N            1.48499382710252       -2.06900935214215        0.00374042518224
C            0.41532281757556       -1.14326695289510       -0.01176070023512
C            0.89096056388002        0.18099269121510        0.01025714425740
C            0.08940945389929        1.36825767174404       -0.00566400068304
O            0.47789489616130        2.54463298798360       -0.00156899204464
N           -1.30707243551567        1.08424586956856       -0.03220655343886
C           -2.25434000811521        2.19680306043977       -0.05038132682449
C           -1.83865379903137       -0.16333529439138       -0.04953178585517
O           -3.03822307029901       -0.35610601310107       -0.07459372019919
N           -0.95296492976162       -1.27733758783681       -0.03818805287083
C           -1.52200477487436       -2.59692507658425       -0.05958832805594
H            3.71138954787595        1.21729777174396        1.06386224877658
H            3.98192901975560        1.04451750607803       -0.68400669016769
H            2.69632404969470        2.12108035337196       -0.07797539583417
H            3.58351752366929       -1.62382276832167        0.04711463396739
H           -1.69259236507123        3.12974936772054       -0.02572530629495
H           -2.86924298573291        2.16009498605664       -0.95162792469330
H           -2.92140036812478        2.14343168800204        0.81193386726543
H           -1.20216395277654       -3.13883011631002        0.83118556219251
H           -1.18063755329295       -3.11997125301531       -0.95374763388736
H           -2.60568010837501       -2.49698236670235       -0.07200903560949
H            1.86874534484197       -3.24610909490897       -0.00957072452801
25
 energy: 24.375017504294 xtb: 6.6.1 (8d0f1dd)
C            3.21940803566518        1.17909214891926        0.08658771641503
N            2.28101159378583        0.09912782670392        0.03099816164792
C            2.59661901454571       -1.24722879381549        0.04159783468855
N            1.48595723387992       -2.06875966158147        0.00426378680160
C            0.41582344350782       -1.14347481855692       -0.01225931148163
C            0.89049005563378        0.18144923764105        0.01012588747170
C            0.08919712357274        1.36832055352613       -0.00566604110572
O            0.47759867756469        2.54492263604315       -0.00177346381636
N           -1.30751939203829        1.08452077332993       -0.03220477881920
C           -2.25484672068415        2.19724275334904       -0.05039084680941
C           -1.83831255178959       -0.16314224111282       -0.04951319827586
O           -3.03814300947035       -0.35601332921289       -0.07447537793815
N           -0.95296586210676       -1.27755918539301       -0.03832242298926
C           -1.52231711836505       -2.59659130341246       -0.05962974647541
H            3.71148643101694        1.21751122292350        1.06393577391292
H            3.98190318880492        1.04454763398516       -0.68396650525157
H            2.69683051874357        2.12166889447767       -0.07792226074730
H            3.58416489220167       -1.62367797506458        0.04544650663265
H           -1.69275156473902        3.12994047507826       -0.02573366617330
H           -2.86960439340374        2.16041670853805       -0.95166670032321
H           -2.92180119458805        2.14375357453992        0.81192471009312
H           -1.20275563108200       -3.13877041294766        0.83117971384824
H           -1.18121879286080       -3.12003918175797       -0.95374145427115
H           -2.60601838677671       -2.49638897975008       -0.07203681723428
H            1.86997907691793       -3.25183995427766       -0.00972360365265
25
 energy: 24.286098526464 xtb: 6.6.1 (8d0f1dd)
C            3.21941664894089        1.17893144445135        0.08658337945869
N            2.28069660091964        0.09921688302741        0.03113140017004
C            2.59674539613869       -1.24689867684800        0.04192095526883
N            1.48650006441008       -2.06887393152089        0.00434093493687
C            0.41594493554669       -1.14388533470268       -0.01233999991926
C            0.89033821139446        0.18099031155600        0.01011737662461
C            0.08921428711735        1.36817082671682       -0.00566315341771
O            0.47767348603915        2.54453002695480       -0.00177166802111
N           -1.30768294220905        1.08474153083667       -0.03220688132827
C           -2.25494605843242        2.19735577680845       -0.05039458821188
C           -1.83826449771453       -0.16309977393592       -0.04953714602257
O           -3.03802232904760       -0.35623327599579       -0.07449757076693
N           -0.95289289170749       -1.27753008900115       -0.03840152553110
C           -1.52244510837560       -2.59654211643519       -0.05963953536952
H            3.71151358349826        1.21728274606146        1.06389067624254
H            3.98173786818509        1.04431754242030       -0.68407536760313
H            2.69707100917607        2.12171053196743       -0.07785723424341
H            3.58429929161375       -1.62342410584083        0.04523055851097
H           -1.69280002501523        3.12999494365399       -0.02574511522551
H           -2.86968158012044        2.16050843140514       -0.95166954666866
H           -2.92186875360219        2.14385681757909        0.81192854551109
H           -1.20291728033957       -3.13872591905011        0.83118653350820
H           -1.18141888066129       -3.12005332046832       -0.95374559423404
H           -2.60614709945630       -2.49637555263844       -0.07202837864063
H            1.87015073163778       -3.25093711482957       -0.00972315888080
