25
 energy: -42.540398515084 xtb: 6.6.1 (8d0f1dd)
C            3.21685390766817        1.17396552029314        0.08504385774130
N            2.26440732464567        0.09219892024284        0.03463596681022
C            2.52922884620559       -1.22524968532703        0.03671758976432
N            1.44152406959104       -1.97960506597604        0.00797020043154
C            0.39680911160063       -1.10154299526010       -0.00946544461335
C            0.89018060799903        0.20033056705813        0.01201743146794
C            0.07594796664457        1.38584150535492       -0.00310492015688
O            0.47067906708508        2.54015714882480       -0.00008562535173
N           -1.28630044274543        1.07807957182624       -0.03077418773420
C           -2.24095775545821        2.17931598134459       -0.05109782416563
C           -1.83106473103412       -0.18958890112575       -0.04820258991270
O           -3.03099803130642       -0.35400961550091       -0.07364218976288
N           -0.95524518105279       -1.27907788512754       -0.03726601475404
C           -1.50487211228439       -2.61580549633177       -0.05969801627166
H            3.70542314232801        1.20636722694952        1.06121027904936
H            3.98061891267445        1.03668951785413       -0.68169768551990
H            2.70109463587787        2.12016884892875       -0.08025877853355
H            3.52683446041359       -1.61384821340426        0.04830800643906
H           -1.68360972143644        3.11431998884963       -0.02652741881392
H           -2.84689733621828        2.12699836524201       -0.95490991458559
H           -2.90119378939659        2.11131510871401        0.81253902246746
H           -1.18551351894377       -3.15927420068036        0.82904438169979
H           -1.16251754753971       -3.13888747149573       -0.95209496281796
H           -2.58678745695698       -2.52406224512372       -0.07320927000317
H            2.07740421749878       -3.49202775145610       -0.01594924036440
