25
 energy: 54.677482235170 xtb: 6.6.1 (8d0f1dd)
C            3.33720007054055        1.04382714450518        0.09938428218732
N            2.42194387523138       -0.06576867400601        0.03928734412924
C            2.75779286256989       -1.34912339144569       -0.00516010975669
N            1.62714502240764       -2.10070570355691       -0.01744375254731
C            0.54420192702362       -1.24786759281756        0.01246626446634
C            1.06019864325594        0.03996675798173        0.05155742281200
C            0.14501320992228        1.21131828849964        0.06806146573208
O            0.58315205037567        2.35303003675804        0.06744734392690
N           -1.15070756403769        0.87460396204341        0.04918757738461
C           -3.10262564037176        3.14658473530420       -0.29937204163607
C           -1.69372505836219       -0.30646463075369        0.06954932411280
O           -2.85318191823889       -0.61633600041319        0.14621097809305
N           -0.74634755640418       -1.51952700089432        0.01662399036158
C           -1.28761953713987       -2.84733540988776       -0.02094677402515
H            3.81900063047373        1.08547160920720        1.07895114538667
H            4.10768822742150        0.93439191397980       -0.66296921423819
H            2.77362195029871        1.96510537058291       -0.05768611454697
H            3.75315006538297       -1.74863605454070       -0.02947898100918
H           -2.08485490894653        3.41077439427449       -0.20298597059973
H           -3.66422809901600        3.76470116979581       -0.93923688674450
H           -3.60501285280812        2.51181938955350        0.38819912146606
H           -0.97934515714389       -3.42768495075387        0.85493983709365
H           -0.97322584540977       -3.36087918472339       -0.93250861017632
H           -2.37507833025401       -2.74978256453867       -0.01301252798001
H            1.60419506375858       -3.10753314226570       -0.04898055336947
