25
 energy: 55.142169209852 xtb: 6.6.1 (8d0f1dd)
C            3.33545172892371        1.04236824546135        0.09904315902246
N            2.41202746220604       -0.05961246911681        0.03475417423930
C            2.74690033020181       -1.34234105137933       -0.00173862951678
N            1.61665137372360       -2.09345758897021       -0.01618539839317
C            0.53534497650962       -1.24011726428901        0.00618403647533
C            1.05076839282837        0.04669985646059        0.04213600409090
C            0.13327713074258        1.21686265482123        0.06387847749737
O            0.56951852895354        2.35813706008538        0.07006476207770
N           -1.16220115890021        0.88259416235934        0.03094579060127
C           -3.05584410736314        3.09769928713136       -0.29556354683076
C           -1.70063576399014       -0.30059444846489        0.07531610262407
O           -2.85815218313777       -0.61089474769655        0.17170860127849
N           -0.75503407780622       -1.50868246864958        0.00966071937063
C           -1.29017438706997       -2.83860678118841       -0.01776828313319
H            3.81084934487849        1.07735249556495        1.08056257345940
H            4.10756671812609        0.92629493874929       -0.66077025273746
H            2.78265479163495        1.97134451202595       -0.05537019169341
H            3.74195044111848       -1.73919319720367       -0.02561451110343
H           -2.05186996835036        3.39558519352945       -0.16827127735083
H           -3.60330128633076        3.69680765139917       -0.96293219508324
H           -3.56959650053472        2.47896971194658        0.39857226160461
H           -0.97444470065282       -3.41066032700093        0.86011449897558
H           -0.97213499650819       -3.35042429362745       -0.92827017769440
H           -2.37774176745972       -2.76202230080613       -0.00638659573682
H            1.59661440195046       -3.09921058890425       -0.04220432161635
