25
 energy: -5.809460388359 xtb: 6.6.1 (8d0f1dd)
C            3.24717521737509        1.16798527196164        0.08796131340556
N            2.30519941834755        0.10033647579849        0.03513242414489
C            2.60477927305511       -1.24233660012013        0.03002964949253
N            1.42577494209796       -1.94620382353809       -0.00089671329367
C            0.40293205510129       -1.06804418990524       -0.00544897292529
C            0.91561089631245        0.22049715000238        0.02149379161038
C            0.10418165477514        1.38035423384141        0.00034725579272
O            0.49196855681443        2.55296135067677        0.00580044263580
N           -1.29215638850964        1.05889646456563       -0.04010086753004
C           -2.24668986720590        2.17655829802019       -0.06185592074457
C           -1.82328498904702       -0.19917977722734       -0.03800771815243
O           -3.01977760205933       -0.40265480168901       -0.05725280982415
N           -0.93601526873673       -1.30439498576513       -0.02760260513244
C           -1.46161343725493       -2.64997348301764       -0.05658349123567
H            3.72727957584338        1.21093081524270        1.06997228718464
H            4.01681995722992        1.03199538707924       -0.67480895135269
H            2.70690658443760        2.09555394945835       -0.08647654931306
H            3.58254820328243       -1.65349340121710        0.03892069181866
H           -1.68716837022440        3.11064229738758       -0.02404912044610
H           -2.86085094045454        2.16558275690196       -0.96112508695367
H           -2.91039218425106        2.10275066204231        0.79817647295065
H           -1.15432153992020       -3.20439171636068        0.83373134758582
H           -1.13045691660107       -3.18159082784309       -0.95287923516787
H           -2.54717840119066       -2.56828313798289       -0.07103061139346
H            1.37763437760923       -2.95184657626363       -0.01917296880285
