25
 energy: 32.003143599629 xtb: 6.6.1 (8d0f1dd)
C            3.29950763407391        1.11208424651757        0.09940600462522
N            2.34161227086354        0.05086803881537        0.01051128018011
C            2.66017797900196       -1.29697353700861        0.01097130699690
N            1.48375620784225       -2.01059716747957       -0.01614938073628
C            0.45347595947197       -1.13394606770602       -0.00986183739416
C            0.93194749824748        0.16329949878916        0.00100385255396
C            0.07669449350844        1.32401371250855       -0.02018282105459
O            0.50689127349547        2.47732116909012        0.04709326516867
N           -1.39837904896049        1.09704717715685       -0.11955837905314
C           -2.48144117323009        2.43628852744095       -0.14455825481413
C           -1.82478965096683       -0.22025637225387        0.00424283989460
O           -2.99925123720545       -0.52992323963182        0.07645087932013
N           -0.88637268199191       -1.34246816667281       -0.00837179665119
C           -1.37831878928566       -2.70468009592706       -0.03069181654829
H            3.79410366071938        1.13824007552889        1.07825388905193
H            4.06937233383507        0.98699316261749       -0.66728968824322
H            2.77693428267749        2.05022080382472       -0.05450929164467
H            3.64106872090638       -1.71452199078563       -0.01663260165681
H           -1.88390414227185        3.30706913205448        0.11413131120255
H           -3.06848795811969        2.76507942383647       -1.01463021314393
H           -3.21134920727127        2.26043062496390        0.63574742211592
H           -1.03360785360028       -3.26691753224711        0.84503460108819
H           -1.02500721100070       -3.22498505300832       -0.92821070486921
H           -2.46827301040948       -2.66761933021218       -0.04038662450773
H            1.46527443332045       -3.01792966158173       -0.04684176341315
