25
 energy: 5.791640596225 xtb: 6.6.1 (8d0f1dd)
C            3.27420715146948        1.14206875550488        0.09456602052976
N            2.31901049535320        0.08044223268068        0.02625566904494
C            2.62866181150260       -1.26751747159996        0.02248605605508
N            1.44900670643381       -1.97969493881824       -0.00922109263459
C            0.42425891022451       -1.09871339095052       -0.00139926158354
C            0.91174067918520        0.19479803209318        0.01698528834790
C            0.06144729472272        1.34921317372666       -0.00632908113140
O            0.47452554896916        2.51219774167527        0.02800311530696
N           -1.38122163885864        1.09346796716152       -0.08878012574785
C           -2.35810258424181        2.29806944063680       -0.10257557486327
C           -1.84343208641680       -0.20568516255091       -0.01129945175407
O           -3.02642934917822       -0.47561920414807        0.00625938066659
N           -0.91832713020157       -1.31552770736476        0.00238465645435
C           -1.42132004956614       -2.67466682331189       -0.04177950524600
H            3.76450782008779        1.17978785124267        1.07431892460273
H            4.04460117230364        1.01203688481814       -0.67102194847514
H            2.73998724947231        2.07216754138428       -0.07076842573544
H            3.60892041852980       -1.68594631865340        0.02001981293324
H           -1.77919212102822        3.21751182518039        0.02607530569658
H           -2.97766331596554        2.45519441845648       -0.98802898745896
H           -3.05659065372069        2.19435352692306        0.72509829312338
H           -1.09743924133860       -3.24097266141236        0.83730116087711
H           -1.07881607789246       -3.20015950385670       -0.94027673154751
H           -2.50848691850258       -2.61667042267281       -0.05593973735069
H            1.41434836684262       -2.98754877116841       -0.03720065867475
