25
 energy: 53.152914424497 xtb: 6.6.1 (8d0f1dd)
C            3.34209936236307        1.04764395308241        0.09840848241578
N            2.43577523221535       -0.06991655890738        0.04329138791114
C            2.76177914443379       -1.35661290317140       -0.00361803908671
N            1.62745630952763       -2.10347489055202       -0.01933986195917
C            0.55273785119592       -1.24805826001976        0.02129761836370
C            1.07301523521037        0.03818207579297        0.06168653946401
C            0.15328025520269        1.20586506844912        0.07279266182819
O            0.57619504857158        2.35331536412973        0.05497099974578
N           -1.13585380138360        0.85957642561970        0.09455833245382
C           -3.15556655274308        3.26109828906408       -0.21948938640749
C           -1.67632358859377       -0.32768286617387        0.08264558916123
O           -2.84732333263395       -0.60956273316916        0.10742102689092
N           -0.74366460233317       -1.52123150111338        0.02378184494357
C           -1.28974234262479       -2.85187959281786       -0.02646051832728
H            3.81778454610979        1.10164046652078        1.07934528876892
H            4.11470801185851        0.94973072255549       -0.66400871575385
H            2.76342980766569        1.95948073954470       -0.06335296041475
H            3.75391386063805       -1.75432910651403       -0.02796045638742
H           -2.09172830902489        3.36714819849799       -0.24737248530006
H           -3.78679233448700        3.86639056928343       -0.83820428318930
H           -3.57145179919045        2.46991854540135        0.36683663671832
H           -0.99468814256395       -3.43218564382287        0.85117514303618
H           -0.98064104942058       -3.36924615848261       -0.93785383709312
H           -2.37558616903147       -2.73763961423973       -0.02929283276264
H            1.58940166401092       -3.10914180021384       -0.05422426282517
