25
 energy: 52.881690762091 xtb: 6.6.1 (8d0f1dd)
C            3.31323324563535        1.09382839804343        0.10143091701525
N            2.36100404659377        0.01799010299768        0.01220968315223
C            2.67685370537244       -1.29713299623094        0.01592932144718
N            1.52055545941315       -2.03343737789720       -0.01399990802664
C            0.47000318910393       -1.15717972498211       -0.01528471228990
C            0.97502965069215        0.12252333342251       -0.00028007457591
C            0.07782608250863        1.28893607821484       -0.01152353987115
O            0.52051916514988        2.42794804626907        0.05096659666635
N           -1.28048493189785        0.99516208486220       -0.08252453902068
C           -2.67798673912791        2.67261022121494       -0.18165463780864
C           -1.77759706196872       -0.24332770064961        0.02485578941409
O           -2.95089629324608       -0.54423305377889        0.11440583445259
N           -0.84232101877451       -1.39283990595325       -0.00795829420530
C           -1.34892290983503       -2.73757085667752       -0.02503699214459
H            3.80552770596397        1.11414528188800        1.07956395815435
H            4.08122071215573        0.97045814580067       -0.66440619963515
H            2.79493684250874        2.03635484863366       -0.04745860044437
H            3.65931758941542       -1.71094759183185       -0.03783679199825
H           -1.95848984455826        3.39134044016744        0.13336191693660
H           -3.19070277112016        3.00725447763463       -1.05051603088894
H           -3.31986822603604        2.30315648244275        0.58360643040586
H           -0.99858193713994       -3.28988286997796        0.85153660898840
H           -0.99754528369929       -3.24584772196026       -0.92634206008187
H           -2.44229520363282       -2.68907774042350       -0.03115726909716
H            1.50088198825373       -3.03786012305059       -0.04107589958269
