25
 energy: 23.935260960569 xtb: 6.6.1 (8d0f1dd)
C            3.29343993128645        1.11926176009689        0.09850454545340
N            2.33468437799466        0.05871079717230        0.01488726433544
C            2.65146016692108       -1.28922439941013        0.01415504859384
N            1.47407892214722       -2.00292527314792       -0.01687005991590
C            0.44558814346695       -1.12435431752105       -0.00623132577404
C            0.92433074580272        0.17279064815072        0.00420897222604
C            0.06857617672187        1.33250617781284       -0.02012285494613
O            0.49713988314743        2.48691211194089        0.04169283228587
N           -1.40672653106411        1.10540104115267       -0.11841736961357
C           -2.44879895559581        2.39636313369054       -0.13501245522588
C           -1.83309479452349       -0.21456416528242       -0.00049318984542
O           -3.00871155885491       -0.51880054535427        0.05834733446735
N           -0.89577342392136       -1.33325602868802       -0.00645939999389
C           -1.38934313253879       -2.69608781041695       -0.03354869018816
H            3.78766695430911        1.14859443503050        1.07738789775993
H            4.06360693261195        0.99271737095390       -0.66791369545543
H            2.76831945543898        2.05554244095646       -0.05838271968129
H            3.63242961883684       -1.70828606383755       -0.00581670113227
H           -1.85874109965626        3.28604702250259        0.08596192323036
H           -3.04770328160117        2.68404492428999       -1.00942319587184
H           -3.17221309935345        2.24556632267670        0.65928825673914
H           -1.04953265424034       -3.26052174874858        0.84244169018232
H           -1.03890438372356       -3.21807311323772       -0.93132782848459
H           -2.47848580098248       -2.65472271851679       -0.04390234569015
H            1.45113814043815       -3.01071312816202       -0.04713029913688
