25
 energy: 53.532212377655 xtb: 6.6.1 (8d0f1dd)
C            3.34375917857058        1.04492378455530        0.09841908434203
N            2.43840859115255       -0.07410728897763        0.04363925383779
C            2.76865662463322       -1.35932672265078       -0.01131824739619
N            1.63511171220890       -2.10775742008701       -0.02247269096037
C            0.55612150030492       -1.25337012230032        0.02264644798011
C            1.07580839154337        0.03416853573812        0.06683053572551
C            0.16080382573025        1.20438402476466        0.07459037628492
O            0.59025154971660        2.34989112989836        0.05202882064907
N           -1.13432860074309        0.86879970970952        0.10202155518159
C           -3.14010343865403        3.22091386667435       -0.26541533554233
C           -1.68322057473316       -0.31105990035870        0.08907581158739
O           -2.84935148981233       -0.60671681961595        0.10410145502764
N           -0.73710632889095       -1.52829629732062        0.02075470645199
C           -1.28293111171998       -2.85993993913912       -0.02850033873796
H            3.81709660670668        1.10763577011330        1.07952546686428
H            4.11585739541852        0.94918081025864       -0.66508316336028
H            2.75937514093902        1.95329119108640       -0.06161895190967
H            3.76082046463533       -1.75500338532766       -0.01858575032351
H           -2.08268066532150        3.38662872737414       -0.25301312874233
H           -3.73595449421529        3.87974606209548       -0.86649945515418
H           -3.56503251707960        2.48752433609727        0.39187347082792
H           -0.99603340842544       -3.44616782629164        0.84857938982643
H           -0.97906207849042       -3.38065721039115       -0.94175013477380
H           -2.36789446815867       -2.74328643182369       -0.02989110097201
H            1.59098633391647       -3.11287854195458       -0.05914886176932
