25
 energy: 54.812083586687 xtb: 6.6.1 (8d0f1dd)
C            3.31933620310751        1.08546429865304        0.10267780341688
N            2.36620426978319        0.00865967079350        0.01317838366033
C            2.68293601742104       -1.29700595466423        0.02342456707681
N            1.53518382950097       -2.03973036375548       -0.01244618952561
C            0.47775285591603       -1.16757797927971       -0.01690878110100
C            0.98581237480644        0.11177580087734       -0.00062407395186
C            0.08060944516263        1.27683172992661       -0.00751793746192
O            0.52568829873657        2.41456929418423        0.05418344664911
N           -1.26157304928583        0.97627422493722       -0.07194899940552
C           -2.73491897103850        2.73244602559484       -0.19862797595617
C           -1.76680720425314       -0.24859113204045        0.03451343794605
O           -2.93689920582550       -0.55285402335541        0.13278909262550
N           -0.82952238366417       -1.40679876877430       -0.00763413261268
C           -1.33618162563933       -2.74859906019122       -0.02166320114634
H            3.81099765532263        1.10204958847280        1.08061541727677
H            4.08650484864127        0.96141728673023       -0.66313610744522
H            2.80463659722466        2.03024181680281       -0.04461280471997
H            3.66877780529342       -1.70247920920112       -0.04016214970285
H           -1.98942376817820        3.41402352633266        0.12457156915012
H           -3.23261706860484        3.10264892920825       -1.05633994912182
H           -3.36053067075308        2.30870889896820        0.55025454951643
H           -0.97961712225670       -3.29551597062411        0.85531475326871
H           -0.98183239915315       -3.25259136067425       -0.92351171208804
H           -2.43058805105468       -2.70252699987949       -0.02690470577968
H            1.51616717766610       -3.04431243873013       -0.03662729647740
