25
 energy: 56.759467922455 xtb: 6.6.1 (8d0f1dd)
C            3.33389287411354        1.05145299160314        0.10099346339430
N            2.39134410923770       -0.03568406952026        0.01495597094446
C            2.71757462007819       -1.32233227161039        0.00727924062028
N            1.58592634561376       -2.07266291455193       -0.01143229118440
C            0.51074024090883       -1.21576973669321       -0.01320126304042
C            1.02446604726850        0.06829012996202        0.01104663721977
C            0.10023580257783        1.23214418451112        0.03054595334634
O            0.54341572031277        2.37111652871346        0.07172262670933
N           -1.20541329907986        0.91239908910812       -0.01240209659099
C           -2.93669158925957        2.94165335729079       -0.27113424030337
C           -1.72793902253768       -0.28260722662424        0.08757915556260
O           -2.88699795906894       -0.59833885662760        0.20176004292621
N           -0.78354915413645       -1.47057212170955       -0.00004771513996
C           -1.30873779051419       -2.80434437022694       -0.01250614399304
H            3.81168742099882        1.06160823851926        1.08315968350347
H            4.10380832869722        0.92977974433305       -0.66017217911699
H            2.80647324759494        1.98870452940139       -0.05276433445677
H            3.70904135638891       -1.72031226776550       -0.02824905679852
H           -2.00774895135520        3.37990376983416       -0.03430594680353
H           -3.43266691456174        3.47558142315049       -1.02748444293442
H           -3.50966531955513        2.37370647257475        0.42493892616966
H           -0.96897597802453       -3.35937332210110        0.86806645353836
H           -0.97091904584353       -3.31225886883918       -0.91678612216468
H           -2.40113184835749       -2.74707112306095       -0.01178799387831
H            1.57643305440861       -3.07685750642471       -0.02974007538154
