25
 energy: 49.561407285088 xtb: 6.6.1 (8d0f1dd)
C            3.30715241297634        1.10245791181960        0.10068254577065
N            2.35378749123216        0.03135462256181        0.01164605831302
C            2.67096721048577       -1.29759530481143        0.00799307116229
N            1.50320158284980       -2.02537232147473       -0.01546775321388
C            0.46199809519935       -1.14644053451025       -0.01226760525786
C            0.95917256669981        0.13704035833580        0.00158966263239
C            0.07437056577504        1.30296852876579       -0.01482277363762
O            0.51333431711562        2.44529761189204        0.04779424696001
N           -1.31283181766651        1.02282590252807       -0.09734011538783
C           -2.60914761525736        2.59191147122355       -0.16614262110559
C           -1.79428875060704       -0.23748550273052        0.01483612668184
O           -2.96956092714130       -0.53732502215589        0.09675150180688
N           -0.85866701020581       -1.37506441300528       -0.00813008743738
C           -1.36214435277298       -2.72517951738595       -0.02794457178176
H            3.80012686895887        1.12534884493938        1.07917880525164
H            4.07603354279360        0.97857507261626       -0.66530705088077
H            2.78685955354752        2.04319030603495       -0.05009877164455
H            3.65169932467952       -1.71672966654821       -0.02987352058417
H           -1.92396817982173        3.35986440681297        0.12652407210451
H           -3.14700879561111        2.90296714607472       -1.03986837167267
H           -3.27468936598412        2.28840564599353        0.61284421996613
H           -1.01556713363389       -3.28223289487917        0.84788679711246
H           -1.01280296897858       -3.23794539695523       -0.92857550177728
H           -2.45418005074337       -2.67750239830997       -0.03426079806338
H            1.48402677594212       -3.03019428029675       -0.04518189485199
