25
 energy: 11.048661201589 xtb: 6.6.1 (8d0f1dd)
C            3.28010721790772        1.13461124271151        0.09576680980354
N            2.32260032767062        0.07380088847229        0.02235414729203
C            2.63533538727306       -1.27440535720057        0.02004488439295
N            1.45620559117526       -1.98771216912251       -0.01261642749317
C            0.43056155892506       -1.10681892257221       -0.00317657463407
C            0.91334326293735        0.18830228574435        0.01148671492571
C            0.05679997512152        1.34380281454380       -0.01369854102173
O            0.47780657772343        2.50305674997646        0.03276890799640
N           -1.39916528797305        1.10240632503542       -0.10101152124866
C           -2.38798239202774        2.33057487030026       -0.11388817229256
C           -1.84305286045777       -0.20773951988503       -0.00738702928627
O           -3.02306905454450       -0.49206790470449        0.02337562094138
N           -0.91203691434086       -1.32003696725087       -0.00171247491240
C           -1.41069772698905       -2.68143934070824       -0.03944765172440
H            3.77210000347663        1.16985108920231        1.07515904113957
H            4.05072009841353        1.00600573488078       -0.67006156025452
H            2.74887800267866        2.06665344427667       -0.06671086463846
H            3.61611681865996       -1.69339094217663        0.01330353526969
H           -1.80548367112590        3.24298890423349        0.04128927980142
H           -3.00269690091804        2.53140427765911       -0.99591150584894
H           -3.09476541730828        2.21447453237480        0.70415210405619
H           -1.08119161626351       -3.24727630605567        0.83854729121962
H           -1.06525738903257       -3.20628481549159       -0.93741536932719
H           -2.49844794087419       -2.62998156487167       -0.05227156147981
H            1.42567575050261       -2.99569850244510       -0.04102487127533
