25
 energy: 53.959580039440 xtb: 6.6.1 (8d0f1dd)
C            3.34337104115533        1.04241413063084        0.09961619977198
N            2.43215968503958       -0.07219692775499        0.04271822518510
C            2.76646877243944       -1.35670560178398       -0.00957702110641
N            1.63465378245779       -2.10757432548190       -0.02074674774620
C            0.55184577398215       -1.25361672424126        0.01975844654679
C            1.06939139890772        0.03478763942494        0.06089920498748
C            0.15549210963140        1.20706426494482        0.06667372289324
O            0.59192634237456        2.35001638501530        0.06311670507362
N           -1.14136640434299        0.87163573884576        0.07416589826566
C           -3.13319037911101        3.19521049201180       -0.28830167940570
C           -1.68798803567304       -0.30892710596293        0.07752665456065
O           -2.85043785194265       -0.61303248775727        0.12515842538904
N           -0.73940151042221       -1.52882121045311        0.02886260287100
C           -1.28469994152391       -2.85611440312353       -0.02275119831323
H            3.82313547193623        1.09597357090843        1.07905138332428
H            4.11226404337654        0.94232042356681       -0.66582218581647
H            2.76681392628594        1.95533706362852       -0.05754743890164
H            3.76114226600518       -1.75468795045532       -0.03121978387197
H           -2.09474414550512        3.41172226463068       -0.23491383302309
H           -3.70695597071841        3.84136496277473       -0.90283677756601
H           -3.57768058322932        2.50052044305286        0.39402437089244
H           -0.98651279057612       -3.44767980528799        0.84772269287995
H           -0.97284846792439       -3.37012723010237       -0.93572245807826
H           -2.37131667766661       -2.74756195323811       -0.01944666637456
H            1.60151988110663       -3.11412907012399       -0.06343944457550
