25
 energy: 1.441691435410 xtb: 6.6.1 (8d0f1dd)
C            3.26827954948322        1.14944818120122        0.09325962263779
N            2.31602194465459        0.08667327683497        0.02967781028828
C            2.62212414241065       -1.26073246077460        0.02472009462939
N            1.44227586976114       -1.97131346269996       -0.00607851756720
C            0.41784780480916       -1.09082834576713       -0.00061146527682
C            0.91120765687404        0.20112314813467        0.02155383583957
C            0.07202583929545        1.35634811065436       -0.00319407191989
O            0.47737767107017        2.52226583680612        0.02161867793021
N           -1.36087222082219        1.08531652592516       -0.07572384229173
C           -2.32919165044956        2.26667675453749       -0.09132562394583
C           -1.84259167873067       -0.20213490563837       -0.01433213358946
O           -3.02840211533036       -0.45733003010982       -0.00933861931027
N           -0.92480578458522       -1.31136061223695        0.00309941102828
C           -1.43219459707680       -2.66786429961827       -0.04462323842821
H            3.75649426860144        1.18921191403102        1.07346309171405
H            4.03820472443300        1.01779884966490       -0.67211678159705
H            2.73146863759683        2.07791787874381       -0.07473371370919
H            3.60183672565709       -1.67825702062453        0.02606081616718
H           -1.75466357744646        3.19176235129880        0.01211614045104
H           -2.95109171200929        2.37995398120331       -0.98012327943503
H           -3.01906856397240        2.17288331804855        0.74519418659404
H           -1.11340684216650       -3.23380699958789        0.83591935214275
H           -1.09257824864423       -3.19405906772448       -0.94345385613196
H           -2.51878429137960       -2.60354425245357       -0.05973709969240
H            1.40350922632641       -2.97900410021851       -0.03281841604586
