  72
        -99.24659034
 N         -1.5669846044        2.6292965811        2.3456144282
 C         -1.7171091305        1.9470032552        1.3103991652
 C         -2.9513817947        1.9592610597        0.4498393062
 C         -3.5821468164        0.5766756058        0.4496902664
 C         -4.5643413553        0.2557350375       -0.4896381596
 C         -5.1719328268       -0.9892417033       -0.5040573595
 O         -6.1209961439       -1.3841832060       -1.3771456460
 C         -6.6124934844       -0.4681339631       -2.3266987616
 C         -4.7931424606       -1.9648048256        0.4582601890
 O         -5.4280843308       -3.1497406735        0.3632864107
 C         -5.1595764596       -4.1504873932        1.3177379483
 C         -3.8292435810       -1.6337753192        1.3976466354
 C         -3.2331248978       -0.3790213507        1.3919701596
 C         -2.4586791599        2.3386712317       -0.9724724949
 C         -1.7495760277        1.2078555342       -1.7393926792
 C         -0.4189302514        0.8454891740       -1.1957656444
 N          0.0094981811       -0.3764892700       -0.9752844919
 C          1.4582844355       -0.6677634107       -0.8261688563
 C          1.9423679620       -1.2339572342       -2.0897785909
 C          4.9071214733        0.4730088577       -0.7137972250
 C          5.7046764313        1.5764039332       -0.7373436057
 C          7.0338327436        1.4067233332       -0.3391603636
 C          7.4969944440        0.1592576554        0.0568220811
 O          8.7545350745       -0.1146182611        0.4612722238
 C          9.7098124069        0.9207938757        0.4889129472
 C          6.6197166464       -0.9626709958        0.0553864267
 O          7.1647462999       -2.1273144087        0.4504970784
 C          6.3712827129       -3.2889748369        0.4780899100
 C          5.2929504891       -0.7827876380       -0.3437692330
 C         -0.8556784194       -1.5266913271       -1.0914410401
 C         -4.0296330158        2.9777997851        0.9257412150
 C         -4.5641081552        2.6187313028        2.3102579357
 C         -3.5364336391        4.4219675359        0.9240337449
 H         -4.8673580372        0.9963353864       -1.2113021781
 H         -7.0635619791        0.4052937380       -1.8462284380
 H         -7.3769587317       -1.0073797463       -2.8825804791
 H         -5.8273560928       -0.1428092700       -3.0171813642
 H         -5.3991268871       -3.8132586401        2.3306133974
 H         -5.8046984578       -4.9862613970        1.0539174215
 H         -4.1141849860       -4.4736024759        1.2774116999
 H         -3.5378073793       -2.3452919434        2.1528246959
 H         -2.5052084815       -0.1482800616        2.1542983037
 H         -3.3155905365        2.6568934120       -1.5655657328
 H         -1.7824258914        3.1902450906       -0.8892059064
 H         -2.4040509417        0.3405012375       -1.8007072117
 H         -1.5847300260        1.5788184793       -2.7589853232
 H         -0.9330337460        1.2920928341        0.8861648466
 H          0.3063346518        1.6408041230       -1.0950738973
 H          1.5575365565       -1.3653094142        0.0107050842
 H          1.9658466760        0.2678108498       -0.5793678022
 H          2.2095833200       -0.5806571847       -2.8976512432
 H          1.8351875750       -2.2807641886       -2.2956320235
 H          5.3513486960        2.5463667669       -1.0477068819
 H          7.6867315664        2.2644326314       -0.3495294357
 H          9.4152233682        1.7197627947        1.1764114129
 H          9.8760494769        1.3382509093       -0.5088298016
 H         10.6285584971        0.4585496475        0.8449734781
 H          7.0305530490       -4.0862088654        0.8172281042
 H          5.5374427113       -3.1859613777        1.1798092891
 H          5.9866573376       -3.5360261263       -0.5167322182
 H          4.6031229773       -1.6112055631       -0.3657784097
 H         -1.1727960690       -1.6926397848       -2.1225536717
 H         -1.7403698562       -1.3916430813       -0.4657695848
 H         -0.3172215786       -2.4079953363       -0.7518586354
 H         -4.8605785220        2.9003656970        0.2147333009
 H         -3.7707590844        2.6959994490        3.0468460485
 H         -4.9671003923        1.6090184309        2.3278290265
 H         -5.3579833889        3.3082377668        2.5842627823
 H         -2.6861708992        4.5295117429        1.5903999134
 H         -3.2577761997        4.7563032210       -0.0716460598
 H         -4.3325172914        5.0697989366        1.2816967275
 H         -0.6769878859        2.5677603782        2.8303902654
