  25
        -42.16229739
 C          2.7866273834        1.5595511727        0.2195349303
 N          1.9712419670        0.3674313778        0.2257308333
 C          2.3993492785       -0.8814386458        0.0403052290
 N          1.3403764902       -1.7150562816       -0.0819337840
 C          0.2067958294       -0.9691878736        0.0127073967
 C          0.5930745888        0.3604279408        0.2045614948
 C         -0.3463647515        1.3951367677        0.3515876695
 O          3.1068531908        1.7976857820       -1.1180063071
 N         -1.6086617772        0.9786332131        0.2724804441
 C         -2.6724749664        1.9580175438        0.4062675304
 C         -2.0705320330       -0.3310754243        0.0682799061
 O         -3.2375111714       -0.5984698206        0.0067819558
 N         -1.0841519961       -1.3298317789       -0.0558400747
 C         -1.4964638228       -2.7027557047       -0.2739311832
 H          2.1815852036        2.3665450110        0.6558078238
 H          3.6848511793        1.3802410130        0.8301620590
 H          3.5982778368        2.6219396239       -1.2099981621
 H          3.4262117054       -1.1818727410       -0.0149187413
 H         -2.2226214831        2.9383093932        0.5312431607
 H         -3.3059818315        1.9401275621       -0.4806690919
 H         -3.2946285823        1.7135040141        1.2675990789
 H         -1.0983331584       -3.3479076636        0.5090617687
 H         -1.1630349306       -3.0493083174       -1.2526744679
 H         -2.5849881309       -2.7282316837       -0.2405052715
 H          1.4030438579       -2.7129803814       -0.2304219178
