  72
        -99.34825773
 N         -1.5790533097        2.8825110568        2.2700388488
 C         -1.7054888210        2.1297196694        1.2799276055
 C         -2.9509481772        2.0356835729        0.4416689930
 C         -3.4420952179        0.5972636748        0.4292887633
 C         -4.4255787684        0.2017354746       -0.4794599993
 C         -4.9377593236       -1.0850360142       -0.4778024256
 O         -5.8970671155       -1.5435376074       -1.3105241203
 C         -6.5374605649       -0.6439511789       -2.1839542515
 C         -4.4491178863       -2.0317908112        0.4615917171
 O         -5.0061207226       -3.2591794665        0.3943896041
 C         -4.6657244061       -4.2173490740        1.3687395473
 C         -3.4720691316       -1.6337189638        1.3597555751
 C         -2.9806184485       -0.3353575995        1.3455810711
 C         -2.5371163201        2.4889092186       -0.9844988649
 C         -1.6920485568        1.4727824647       -1.7684077561
 C         -0.2842458324        1.4041620298       -1.2999771032
 N          0.4800476040        0.3107286702       -1.2880316156
 C          1.7638425354        0.3480284852       -0.9169288519
 C          2.6956399584       -0.8127364981       -0.9479508391
 C          4.1302038946       -0.5142956660       -0.6012732616
 C          4.6846099785        0.8558650507       -0.7905486262
 C          6.1303286402        0.9802775997       -0.4542529015
 C          6.8902445323       -0.0621866339       -0.0350294923
 O          8.1940706909       -0.0152623640        0.3057670439
 C          8.8654944361        1.2227379218        0.2454998257
 C          6.2997474999       -1.3720481541        0.0876138673
 O          7.1394795927       -2.3351216660        0.4756363538
 C          6.6843951866       -3.6614901285        0.6178895790
 C          4.9354425175       -1.5402146168       -0.1892378290
 C         -0.1340828908       -0.9509041106       -1.6675526917
 C         -4.1187659473        2.9288552989        0.9565224987
 C         -4.5664095995        2.5126802944        2.3557988608
 C         -3.7934922044        4.4200241821        0.9443721786
 H         -4.8075575136        0.9173856500       -1.1885636226
 H         -6.9953331673        0.1868609707       -1.6386920815
 H         -7.3157085114       -1.2219060767       -2.6786179834
 H         -5.8464748457       -0.2518245591       -2.9375303123
 H         -4.8889340266       -3.8586370414        2.3779759660
 H         -5.2816498414       -5.0875568649        1.1505353950
 H         -3.6092026518       -4.4975035066        1.3062300887
 H         -3.0947850419       -2.3252500482        2.0955575826
 H         -2.2480779970       -0.0537115373        2.0860280950
 H         -3.4423708198        2.6914741805       -1.5566428771
 H         -1.9839725458        3.4251890350       -0.9048256940
 H         -2.1820083005        0.5008276242       -1.7328396016
 H         -1.6938698780        1.7997910827       -2.8177531331
 H         -0.8942353154        1.4919093237        0.8884555424
 H          0.2107603534        2.3372869476       -1.0802246474
 H          4.1247303939        1.5794327946       -0.1924144575
 H          2.1259353566        1.3134571791       -0.6150429289
 H          2.6959311910       -1.2507004497       -1.9591382633
 H          2.3514786056       -1.6062864522       -0.2704419045
 H          4.5269358208        1.1652098722       -1.8375422715
 H          6.5477480573        1.9685272732       -0.5523939646
 H          8.4188982283        1.9507913177        0.9294510608
 H          8.8669010396        1.6277508592       -0.7705691678
 H          9.8879931495        1.0163931467        0.5546600862
 H          7.5518449129       -4.2342238139        0.9402294570
 H          5.8995671408       -3.7370574544        1.3760991913
 H          6.3187822218       -4.0622511450       -0.3322218404
 H          4.5063957568       -2.5248654427       -0.0734882162
 H         -0.4565384843       -0.9079909173       -2.7079479124
 H         -1.0024348666       -1.1451641494       -1.0364936026
 H          0.5649610940       -1.7710710368       -1.5512927069
 H         -4.9585282238        2.7591514231        0.2721770389
 H         -3.7724684461        2.7003313902        3.0717960227
 H         -4.8307001726        1.4583313614        2.3876637582
 H         -5.4384679766        3.0922244588        2.6471748020
 H         -2.9267437877        4.6194829017        1.5664536301
 H         -3.6076956141        4.7874371438       -0.0612036483
 H         -4.6384918251        4.9713814207        1.3488057172
 H         -0.6813855825        2.8903974279        2.7446801896
