  72
        -99.35754710
 N         -1.6790785089        3.2475016024        2.3030274070
 C         -1.6988383031        2.5188385603        1.2898438970
 C         -2.8719172212        2.3738696123        0.3609641712
 C         -3.4194763968        0.9561844210        0.4496957915
 C         -4.3806964031        0.5329873389       -0.4649914503
 C         -4.9026871580       -0.7570400483       -0.4089324830
 O         -5.8464734887       -1.2398972310       -1.2437598479
 C         -6.4438191610       -0.3823815487       -2.1887385258
 C         -4.4317267567       -1.6472758451        0.5643500095
 O         -4.2072465454       -5.4547833219        0.3787728490
 C         -4.4340917939       -6.5906144409        0.6795784405
 C         -3.4908176090       -1.2235932578        1.4762467626
 C         -2.9873748682        0.0710664284        1.4295633891
 C         -2.3165669782        2.6361715861       -1.0640712470
 C         -1.4828313351        1.4814834083       -1.6495559193
 C         -0.1609301070        1.3112011369       -1.0072829718
 N          0.3761045170        0.1536206629       -0.6501290824
 C          1.7563148585        0.0885241562       -0.2290804933
 C          2.6763929269       -0.3856908102       -1.3709167467
 C          4.1148739144       -0.3094451752       -0.9409654496
 C          4.8231317708        0.8748988561       -1.0700822207
 C          6.1437468713        0.9621721114       -0.6588253658
 C          6.7843357956       -0.1370473719       -0.1047775408
 O          8.0592686459       -0.1700972901        0.3229763689
 C          8.8563919552        0.9857725550        0.2027530581
 C          6.0645699102       -1.3564347481        0.0358438623
 O          6.7636714163       -2.3722869855        0.5779102163
 C          6.1531695216       -3.6323497020        0.7236926032
 C          4.7432751816       -1.4181430720       -0.3796974547
 C         -0.3469662830       -1.0923526377       -0.7469681124
 C         -4.0302416820        3.3662349179        0.6735556680
 C         -4.6599170537        3.0755804114        2.0338445091
 C         -3.6049996560        4.8301474921        0.6039855741
 H         -4.7296977913        1.2180835404       -1.2201968198
 H         -6.8883400664        0.4946056073       -1.7101532935
 H         -7.2284232453       -0.9681516694       -2.6627111878
 H         -5.7260317896       -0.0615336315       -2.9501630428
 H         -4.8243138065       -2.6505928802        0.5833711228
 H         -5.4497537670       -7.0144195627        0.6793131486
 H         -3.6416938148       -7.2971561584        0.9739503372
 H         -3.1448390058       -1.9038184500        2.2390678416
 H         -2.2728575335        0.3902101210        2.1727679762
 H         -3.1533264082        2.8191113850       -1.7375094732
 H         -1.7079294593        3.5411367795       -1.0429945128
 H         -2.0626785303        0.5606827426       -1.6225945489
 H         -1.3008279154        1.7313588326       -2.7031593879
 H         -0.8289831061        1.9299663601        0.9377128674
 H          0.4811084483        2.1786123310       -0.9529557455
 H          1.8414303326       -0.5968275502        0.6179170161
 H          2.0822902444        1.0782034135        0.0978700087
 H          2.5161598846        0.2589821336       -2.2372086972
 H          2.4190268890       -1.4081515714       -1.6489103946
 H          4.3515711629        1.7414262002       -1.5084247846
 H          6.6704935484        1.8943075853       -0.7806479736
 H          8.4464004277        1.8175434943        0.7835809813
 H          8.9669012505        1.2886935318       -0.8427480650
 H          9.8301793628        0.7114800095        0.6037751751
 H          6.9173975849       -4.2787944353        1.1507508394
 H          5.2969071803       -3.5874006793        1.4041740739
 H          5.8343613415       -4.0378181265       -0.2414704887
 H          4.1917471006       -2.3402078979       -0.2831362062
 H         -0.5424745349       -1.3556619798       -1.7882979900
 H         -1.2997965195       -1.0257331192       -0.2165361290
 H          0.2418665020       -1.8855737868       -0.2945852023
 H         -4.7956781580        3.2008836070       -0.0934279291
 H         -3.9330733974        3.2388701479        2.8230973204
 H         -5.0192554488        2.0509224163        2.0913435925
 H         -5.5020123326        3.7432557094        2.1957153623
 H         -2.8387596704        5.0357104062        1.3449248594
 H         -3.2336686111        5.1000015574       -0.3810404381
 H         -4.4636920116        5.4604567832        0.8197441670
 H         -0.8219365175        3.2925479083        2.8445821649
