72
 energy: 78.658204303921 xtb: 6.6.1 (8d0f1dd)
N           -1.22858755548435        3.88570713966102        1.98680571361773
C           -1.45511473529257        2.91853625672228        1.23541928574026
C           -2.48717854596913        2.73422656569200        0.25554292561912
C           -3.46691619229325        0.54709850257320        0.67074824230348
C           -4.39423595785380        0.14947527525172       -0.28880483924022
C           -4.75580374394055       -1.18009617372011       -0.43023990344573
O           -5.64271520392490       -1.66315854176369       -1.35630667856712
C           -6.31552305816100       -0.79088205275046       -2.24394920704740
C           -4.21186435896799       -2.15192102438806        0.42552458924961
O           -4.67988283481506       -3.41301829837550        0.19676680393610
C           -4.32309780863529       -4.41168243059674        1.10209968378371
C           -3.39528055666098       -1.75618520167808        1.46140708480236
C           -3.04629868080601       -0.39906034651916        1.58210837881633
C           -1.85905530418652        2.71311128819100       -1.09152596640921
C           -1.18528706962971        1.37748583535220       -1.39339732274290
C           -0.03151269743358        1.17057903608244       -0.45696496801719
N            0.54973937655862       -0.05066377652213       -0.27801828538789
C            1.96362676732392       -0.14082634505873       -0.00208089044314
C            2.82815618483974       -0.63891892986940       -1.19191198432141
C            4.28446464083094       -0.54010257657403       -0.82843510869610
C            4.99411862757736        0.63159290514856       -1.02242263948742
C            6.31674697372095        0.74324262251489       -0.61073577020092
C            6.95527916718019       -0.31958637811137        0.00475762781814
O            8.25396194799835       -0.33024291685777        0.42800165090247
C            9.02990863113959        0.82479438935103        0.21740024872946
C            6.23565200111257       -1.51618512539182        0.22361366432179
O            6.93361989993242       -2.50745230432686        0.84853475297239
C            6.28638026099289       -3.73003134835968        1.07298255912093
C            4.91941946721662       -1.60434925675803       -0.19053768195793
C           -0.21293097655679       -1.26994563649251       -0.37396404222592
C           -3.83244340584872        3.35692175309388        0.35806014645238
C           -4.37124709314806        2.91451588265559        1.67809176686689
C           -3.73906144826734        4.84821696074366        0.30954014777454
H           -4.86498064658202        0.86589027286879       -0.96232319188267
H           -6.94668438440159       -0.05867312494248       -1.72523727972057
H           -6.96900421814023       -1.41733168745875       -2.85730669429255
H           -5.61029108099634       -0.26433770042923       -2.89606155748284
H           -4.63312763709370       -4.19507984120645        2.13240410186722
H           -4.83530370854995       -5.30914064643927        0.75879774185168
H           -3.24425500920238       -4.57446458884827        1.08473474762537
H           -3.02245711551447       -2.48809939447024        2.16747403378024
H           -2.42413349433550       -0.08430709187225        2.40390787952703
H           -2.62618746141346        2.93982086465973       -1.84634128364794
H           -1.08465653876660        3.48831582673832       -1.04659997193738
H           -1.94285094171300        0.60710905842278       -1.27463107049112
H           -0.85823314264471        1.38997827859841       -2.44126743404813
H           -0.85992615495076        1.92894802025921        1.23126514747160
H            0.67301113525215        1.99633767660160       -0.42985776139317
H            2.14389245286993       -0.78826621261880        0.86623004995803
H            2.29795505420361        0.86811355553417        0.24404375145339
H            2.63010880332418       -0.01507581864208       -2.07045256991131
H            2.56444233430959       -1.66897509208500       -1.43221990971155
H            4.51969412882450        1.47781891822233       -1.49834627542414
H            6.84141654656683        1.67253703458610       -0.77638264028704
H            8.62780400746673        1.69626378536369        0.74886226258038
H            9.11486719745583        1.06513906427035       -0.84722412459415
H           10.02040753312147        0.59231382679132        0.60570941538177
H            7.02748506618705       -4.36652099440025        1.55308550588986
H            5.42293582693443       -3.61866936937536        1.73810731769838
H            5.96018250749108       -4.18731681553086        0.13244256202277
H            4.35215715184674       -2.50518617505147       -0.02117237261737
H           -0.82439216705712       -1.32125691529968       -1.27305181959671
H           -0.89805099190482       -1.33839789911605        0.48786269511195
H            0.43385698561012       -2.13136444468457       -0.41952709751581
H           -4.43208419757516        3.00982526795249       -0.49100064035529
H           -3.71125423639660        3.21198226950189        2.49084133608606
H           -4.28655545590886        1.82099784413973        1.63559465285342
H           -5.39689897202732        3.22814010076701        1.85832268682854
H           -3.07971854315575        5.19610925776917        1.09457896229938
H           -3.38207222369669        5.15574586634959       -0.66611953636804
H           -4.72322036118210        5.25594074853506        0.48074804716396
H           -0.43567133277581        3.67618330884319        2.57270409512676
