72
 energy: 76.039342653183 xtb: 6.6.1 (8d0f1dd)
N           -0.98483727323606        4.18655345932604        1.84816896593447
C           -1.49780618939221        3.35718316659285        1.14736902630921
C           -2.34876764300974        3.07646118568919        0.19554988247080
C           -3.63151508138340        0.40537423532181        0.79449664296030
C           -4.48512330049994        0.06946442819868       -0.22780430672756
C           -4.77692173063753       -1.26563184023388       -0.42268047241025
O           -5.61648729741779       -1.74213938337225       -1.37935858961240
C           -6.30457647943537       -0.85077482295618       -2.23620716759511
C           -4.20538228259548       -2.23033270678549        0.42524315443701
O           -4.59107730005251       -3.48656553040464        0.13744247470171
C           -4.21731081537173       -4.50312896874039        1.01141148329505
C           -3.40658973449052       -1.86065275648674        1.48146628415678
C           -3.12210739951255       -0.50483118809878        1.66748967698256
C           -1.72470562425490        2.84400865344231       -1.11871537185546
C           -1.18338261486161        1.44016821976803       -1.29863316675311
C           -0.14195812735660        1.23169016199913       -0.18394278731913
N            0.51873888661818       -0.01807524564197       -0.34449738628024
C            1.91897258128321       -0.13211166058360        0.02512944374651
C            2.78939305683368       -0.64909371062921       -1.15883747513181
C            4.25050551096605       -0.55674019323144       -0.80629243322687
C            4.96212050261440        0.61265247324778       -1.00801867205633
C            6.29044685323856        0.71981715367664       -0.61502036789797
C            6.93347037655067       -0.34748500756417       -0.01347938243054
O            8.23479084961882       -0.35641383315568        0.40042478964617
C            9.01419300773983        0.79533315320661        0.18650939423306
C            6.21645963758616       -1.54432899663267        0.20795727896474
O            6.92074453035117       -2.53916745696002        0.81985627542650
C            6.27722227777353       -3.76251695225193        1.04805464241572
C            4.89450203380641       -1.62809022023164       -0.18885562154240
C           -0.24939355854509       -1.24081394328498       -0.31392202213903
C           -3.78555160838656        3.43700311484990        0.30301970585322
C           -4.28053289281588        2.91574997573967        1.60475743950577
C           -3.85427222516654        4.92669158188944        0.24491637146430
H           -4.94539760643409        0.81922323358434       -0.86816606423469
H           -6.97471956328220       -0.16048084699273       -1.70901500993592
H           -6.91666574183340       -1.48385907048491       -2.87906898592751
H           -5.61562639120964       -0.26852325336352       -2.85362305259355
H           -4.55050567583980       -4.33807731246774        2.04496882026097
H           -4.69471540225770       -5.39752141479397        0.61701311204707
H           -3.13541999399527       -4.62478614110994        1.00189326873395
H           -3.02256902872345       -2.59594568553972        2.17066127086678
H           -2.51745878795791       -0.16878015786549        2.49614933078997
H           -2.47475636270544        3.07878135129603       -1.87572076572048
H           -0.88350198644104        3.54315180311936       -1.09526467418846
H           -2.00813483405593        0.73533857719737       -1.18265531764819
H           -0.78849890267674        1.35116384172937       -2.32048187273602
H           -0.78825032294978        1.59341275014026        0.91888334947882
H            0.62706638364993        2.00722651761860       -0.27268433993014
H            2.07586037026125       -0.78968199892342        0.89428895016750
H            2.29673295891706        0.86047600597235        0.28479513780866
H            2.59017256315574       -0.03490778321023       -2.04240416773780
H            2.52650186004710       -1.68131412707940       -1.39536517748844
H            4.48418301965165        1.46019211107697       -1.47712328643524
H            6.81590378096300        1.64933295355121       -0.78104304740393
H            8.62166740869908        1.66550760466457        0.72727698972152
H            9.08912753177646        1.04218428134293       -0.87728483673412
H           10.00898582915528        0.55819796112707        0.56224733714058
H            7.02249702324742       -4.40152988215582        1.51913785674502
H            5.42029299632321       -3.65353702884221        1.72194557634294
H            5.94245597800166       -4.21685387139030        0.10918497204148
H            4.33229107906049       -2.53212980573501       -0.02051412925492
H           -0.98260550385121       -1.22939944477751       -1.12043733812369
H           -0.79417968251421       -1.37960636864697        0.64079302597732
H            0.38419965410198       -2.08970078670839       -0.52556402017515
H           -4.32529741306513        3.03541467403013       -0.55299276454130
H           -3.69799903648038        3.28602315846833        2.44566015929921
H           -4.09674438201803        1.80645590445682        1.49288849136070
H           -5.33636745922954        3.14826765152204        1.77646828167704
H           -3.24494438024098        5.34020312358511        1.04032711936099
H           -3.49228697598898        5.25577596335972       -0.72129455845798
H           -4.87078625744589        5.25303896848511        0.37948950839227
H           -0.36579323381200        3.89729329464260        2.57421944915236
