72
 energy: 39.992266299735 xtb: 6.6.1 (8d0f1dd)
N           -0.56302136085771        4.51502727040608        1.78112104047058
C           -1.34402511911083        3.91947096620551        1.07655573992401
C           -2.14630268882285        3.54327758239974        0.12192155787584
C           -3.87222668161603        0.27555937297838        0.97719958529611
C           -4.64471724131682       -0.07427413628422       -0.12092902179193
C           -4.83956121164508       -1.40863665988745       -0.42098897022938
O           -5.61673049770015       -1.88007153511065       -1.42804327410916
C           -6.30434549597838       -0.96132992450503       -2.23534473287034
C           -4.23213239183961       -2.38593013890146        0.39734856400480
O           -4.51755579709453       -3.65120610328459        0.03209109326100
C           -4.03477665547247       -4.68800451474222        0.82526003865229
C           -3.46413036024019       -2.02766852898204        1.48605446037170
C           -3.27896486622667       -0.67424408462085        1.77696100303607
C           -1.53559726444750        3.07561676590828       -1.16587354587845
C           -1.22426240567016        1.58076828360085       -1.16570821767053
C           -0.24188109999398        1.26654863425970       -0.03459520779941
N            0.46584403491187        0.03165285740367       -0.36291546424833
C            1.84631066944736       -0.10209172520965        0.04908524856217
C            2.71746446488680       -0.66370936647071       -1.10414656386945
C            4.18066027008258       -0.58094323994214       -0.76126252422604
C            4.89467729553623        0.58450320323993       -0.97621359941703
C            6.23279093628647        0.68142665350450       -0.61918942544362
C            6.88350084359490       -0.39370938546224       -0.04274389775022
O            8.19762381492538       -0.41432406399950        0.33612234028519
C            8.98203655873326        0.73537923580731        0.12536671008394
C            6.16883955346918       -1.59081986753230        0.18104379730392
O            6.89262757343735       -2.59612930482917        0.75494859321375
C            6.26262388013508       -3.82430703847552        0.99515239783009
C            4.83477703588779       -1.66518892822974       -0.17729456631007
C           -0.29569357505324       -1.18962365618768       -0.24634246205731
C           -3.63826656797215        3.60980663514065        0.23670731389637
C           -4.10186665527760        2.97620793533507        1.49913524521603
C           -4.04270701478365        5.07545300604509        0.14264934680032
H           -5.09975805952181        0.70090302837470       -0.71616812952278
H           -7.03618838338204       -0.35517509284517       -1.68316478656211
H           -6.82102231269798       -1.59721739616948       -2.94820047071973
H           -5.62877863268077       -0.29098497793142       -2.77195780785907
H           -4.42054274158961       -4.63776354381567        1.85638477030265
H           -4.42348306613836       -5.56884840058916        0.32503461392393
H           -2.94012223506244       -4.72235214541582        0.84523087489023
H           -3.02770677148993       -2.77748564089939        2.13172635648671
H           -2.68126501365208       -0.37987687332988        2.62581204209933
H           -2.21380808825769        3.31439720398133       -1.97916698064295
H           -0.60599331332923        3.63271371192939       -1.28681444152698
H           -2.13827647921059        1.00359427273797       -1.02359285090115
H           -0.77611683513605        1.30945983631290       -2.12666941710956
H           -0.78135462148255        1.25211112204822        0.92732966692666
H            0.52230228276195        2.04774418859258       -0.00101441429879
H            1.96743689233451       -0.75572975999278        0.92951301533114
H            2.23635424212328        0.88689998129173        0.30145309264550
H            2.51423463628920       -0.07185214518753       -1.99732021994459
H            2.45085679601930       -1.69950924140518       -1.32254592785116
H            4.41129844213390        1.43576531994737       -1.43221645220140
H            6.76350510843155        1.60589756089629       -0.79802939534300
H            8.61068406121661        1.59951845062843        0.68870812052115
H            9.03966758046023        0.99754710451899       -0.93555929069136
H            9.98015837709351        0.48228801886068        0.48340841816441
H            7.02565348458285       -4.45997546479004        1.44208543606621
H            5.42306949748106       -3.72528721997207        1.69187065228422
H            5.91108233129410       -4.27801819481449        0.06275391908938
H            4.28410598787324       -2.57777441715025       -0.01402735918749
H           -1.23984227218479       -1.07823239652189       -0.77251448807645
H           -0.49116171708670       -1.46621601848432        0.80185829441010
H            0.24294523537551       -2.01165332268185       -0.73593622663922
H           -4.07538109447082        3.09819017691725       -0.62282163926284
H           -3.51874359768655        3.20233255916576        2.37814624653672
H           -3.88625658971643        1.46056575370174        1.27581094994754
H           -5.17372131034350        3.04466411451540        1.66304681014746
H           -3.58298994476008        5.61284771813250        0.96622357815981
H           -3.67761316059303        5.47951501219162       -0.79680234551161
H           -5.11934535879071        5.18067165421427        0.16993386001656
H           -0.10893078550795        4.17904662744271        2.60701077323507
