72
 energy: 36.083255283700 xtb: 6.6.1 (8d0f1dd)
N           -0.59788696794323        4.58264374023626        1.83658415170780
C           -1.33987298595214        4.01158051177030        1.06775097295737
C           -2.11604817601844        3.61259269229521        0.09719707821013
C           -3.91015107314787        0.25143363552526        1.00451701898415
C           -4.67250315244825       -0.09856965115119       -0.10114100149009
C           -4.86105349546356       -1.43135833749412       -0.41193780841128
O           -5.61354712877354       -1.90126004696562       -1.43882350695759
C           -6.30472675329172       -0.97677989390602       -2.24040895343682
C           -4.25522728510778       -2.41273968453088        0.40463534845378
O           -4.51771103880505       -3.68528804491513        0.02197280408065
C           -4.02275431177316       -4.72996907953858        0.80223329472739
C           -3.48678027238977       -2.05287612184108        1.49346708354105
C           -3.30992515090831       -0.70245924653100        1.79515689948051
C           -1.51468053282263        3.11363077739370       -1.18792432853135
C           -1.22681100865451        1.60886426786362       -1.15561282729891
C           -0.24414288027674        1.25090086885060       -0.03089878612910
N            0.46548204193938        0.02879435590534       -0.39931007623679
C            1.84261726438197       -0.09673632148710        0.03475957020217
C            2.71603307365263       -0.66157896844971       -1.10397343962479
C            4.17626178937111       -0.58197270606446       -0.75462503840273
C            4.88784544320723        0.58430487407389       -0.96850011091237
C            6.22731937994309        0.68182241364920       -0.61646321563546
C            6.87907603741872       -0.39628325941559       -0.04514585354574
O            8.18864382692006       -0.41624540524169        0.33703485267048
C            8.97649102344801        0.72749796077688        0.11771406991734
C            6.16386159747342       -1.59360890524113        0.18413991710693
O            6.88557976384164       -2.59721994757515        0.75589211653144
C            6.26018561969646       -3.83149118066892        0.98706737952281
C            4.82854694274650       -1.66788004172326       -0.17097628778354
C           -0.30483770304397       -1.18560793482081       -0.24725312038779
C           -3.61406219215066        3.63936516108176        0.22786578991344
C           -4.08527015035588        3.01670211357428        1.49214584264214
C           -4.07179764621713        5.09657254374708        0.13332413704160
H           -5.12682762444010        0.67914964950719       -0.69426149738497
H           -7.03917606542958       -0.38506236582043       -1.68000412249265
H           -6.82189816113687       -1.59343419553366       -2.96974406218845
H           -5.62882055736089       -0.29411879673164       -2.76237487882459
H           -4.40609002904673       -4.68693113073963        1.83033978925306
H           -4.39551475092141       -5.62023094072340        0.30407953346201
H           -2.92646314588177       -4.75832833027762        0.82455833606157
H           -3.03491150012746       -2.80574864503000        2.12717807728858
H           -2.71127704578107       -0.41316324589133        2.64553398371709
H           -2.18656341876451        3.35010064663129       -2.01477953014408
H           -0.57060931509233        3.64010764889601       -1.33179249702426
H           -2.15587613398440        1.05319393110136       -1.01150598080853
H           -0.78434195007390        1.31797461289976       -2.11144184982673
H           -0.78295606601293        1.16832013970049        0.92205305795818
H            0.50388298126738        2.04074561820651        0.04810599272189
H            1.95564621250664       -0.73926507918640        0.92360613732316
H            2.22984890572315        0.89444798253062        0.28213692594028
H            2.51618711587721       -0.07118967502071       -1.99999610026332
H            2.44238102966551       -1.69837398918225       -1.31347458461879
H            4.40100224966515        1.43469615461002       -1.42264183340343
H            6.75604173415299        1.60438177865143       -0.80002872886677
H            8.60904030565493        1.59101509393443        0.68343077797935
H            9.03058102333633        0.99004828378607       -0.94416388357424
H            9.97520535783131        0.47007499888375        0.47129866705621
H            7.02613770654326       -4.46784835228355        1.42863799937793
H            5.42257809920951       -3.73762963575375        1.68654252109721
H            5.90692246118565       -4.28502924354112        0.05496351306174
H            4.27588362589651       -2.58035102252072       -0.01053058857207
H           -1.27301946500637       -1.05610552790578       -0.73756641938565
H           -0.49609001311694       -1.47532314875536        0.80737864554427
H            0.23578264418872       -2.00550645057025       -0.73052622198940
H           -4.03585229065153        3.11274573829317       -0.63284926728809
H           -3.48855385267127        3.17465481384974        2.37238801297886
H           -3.88038534644505        1.38908674741992        1.27497285358847
H           -5.15256527209713        3.04005956171590        1.64984328815001
H           -3.64310565708664        5.64989991047753        0.96145361406803
H           -3.70075805327735        5.52286786370886       -0.79512766816560
H           -5.15294297080432        5.16726425977757        0.13805310632559
H           -0.13162639151916        4.18466036771329        2.64583773953066
