72
 energy: 6.480411919968 xtb: 6.6.1 (8d0f1dd)
N           -1.44451882170182        3.24324504013944        2.17815930533217
C           -1.54811310357846        2.41906317352392        1.23997633183883
C           -2.69936333933127        2.24151811054115        0.29465913376104
C           -3.32087889485186        0.72867823630762        0.46215871320564
C           -4.31234292502329        0.25850153513506       -0.44211004530128
C           -4.79231673334201       -1.05062672906857       -0.47600504529795
O           -5.73366258840708       -1.54405698883547       -1.35454434880760
C           -6.35962691147995       -0.67908257281705       -2.27452668173395
C           -4.31427809904122       -2.01102604040304        0.44256255207796
O           -4.86544454848314       -3.25711986571087        0.32686122368433
C           -4.53128251673089       -4.22656634464972        1.28535070524593
C           -3.40151143811497       -1.57962126897638        1.39295107468139
C           -2.95104354070084       -0.24092995029626        1.40157330332305
C           -2.08192282939566        2.45176158627177       -1.11359665467547
C           -1.21865989025349        1.27760854345458       -1.57183607889549
C            0.01246273846946        1.17510259342638       -0.72791653342621
N            0.61212416542744       -0.06051424391934       -0.44455709421645
C            1.99857354615854       -0.08902610832645       -0.10424841965827
C            2.90384006636467       -0.58913587005969       -1.25342012669640
C            4.33992139141935       -0.48177577489873       -0.84677378997089
C            5.05060623743871        0.68758435098717       -1.03966294932422
C            6.36337342476576        0.80090478856681       -0.60348850809327
C            6.98548575274791       -0.25510488425949        0.03859952777872
O            8.27493155509989       -0.26110375792423        0.49097151320983
C            9.05578436206031        0.88683987887185        0.27936114208852
C            6.26219636102515       -1.44893282222595        0.25693017284240
O            6.95007094031052       -2.43478232351414        0.90189390236709
C            6.30454226407193       -3.66068574986806        1.12052105278602
C            4.95511683405510       -1.54085372933718       -0.18067385161563
C           -0.11492593819757       -1.29917320801127       -0.52699843537393
C           -3.88202028761757        3.18462349137142        0.48787351577151
C           -4.46695689560574        2.82768016566358        1.83498216182203
C           -3.52919127254844        4.65623685985168        0.45287085448950
H           -4.73445788429050        0.93646948516532       -1.17212780317828
H           -6.88932060168562        0.13537752090718       -1.76958858725215
H           -7.08919127289555       -1.27988951717471       -2.82191745039384
H           -5.63795787346328       -0.26196798569961       -2.98536947023175
H           -4.78962262779639       -3.90857062467299        2.30061514879634
H           -5.11300619363137       -5.11329924747487        1.03374698097593
H           -3.46606218324122       -4.47162683237939        1.24740545981200
H           -3.02854156075669       -2.29325722513620        2.12425930928048
H           -2.25204387247789        0.01460803867066        2.17788687438937
H           -2.88215962953859        2.61431781851480       -1.84923440906934
H           -1.44324117711890        3.33827688792489       -1.08844961045727
H           -1.82401531557942        0.37910702685637       -1.48266672233798
H           -0.99334983138629        1.42717763047530       -2.63472898870631
H           -0.77215750190938        1.64752158889181        0.95611089456654
H            0.71705051771150        1.99898046176647       -0.76316820056200
H            2.15661362610572       -0.72353040642684        0.77565460660262
H            2.29600667472000        0.93006246510429        0.15372394790564
H            2.71297706183455        0.03234196610433       -2.13237465799955
H            2.63870617945973       -1.62043065636033       -1.48797569078212
H            4.58420974672064        1.52593895306340       -1.53643179679548
H            6.89327667774843        1.72443018426644       -0.77654415957922
H            8.64113745455642        1.76398598904796        0.79025949615401
H            9.16538937598516        1.11127350402235       -0.78705748299726
H           10.03458695869475        0.65572709450497        0.69656143714159
H            7.04205602445965       -4.29067755661606        1.61499893367041
H            5.43047938207054       -3.55003133371591        1.77197037651889
H            5.99541630734408       -4.12808079319070        0.17892902989554
H            4.38451228711377       -2.44199174290103       -0.01554066529116
H           -0.48454134878575       -1.51668324823358       -1.53566914877221
H           -0.98422383661954       -1.26627367750389        0.13953557574885
H            0.51748566668764       -2.13570424370657       -0.22918267890976
H           -4.59813864764775        2.98193248226184       -0.32281114137327
H           -3.72781270670681        3.01486459878080        2.61567187837014
H           -4.64947538204411        1.75388203976860        1.84477666802643
H           -5.38738835163856        3.36504240867593        2.03372154882112
H           -2.78656141054809        4.88912073834270        1.20558934060941
H           -3.17197104197208        4.95462503072219       -0.52819966136089
H           -4.42519726488101        5.22315743662002        0.68136631714221
H           -0.55784863139304        3.14284654360466        2.66930829103503
