72
 energy: 66.651494519191 xtb: 6.6.1 (8d0f1dd)
N           -1.29177555463888        3.78744928226971        2.03401928421178
C           -1.47621089780760        2.83516260539016        1.24327748846140
C           -2.53418642367536        2.62553293846283        0.27112588528009
C           -3.42357249527176        0.59427653051109        0.63195699948577
C           -4.36863645720461        0.17628875963862       -0.31284487151014
C           -4.75250834519467       -1.15258077076453       -0.43884454399343
O           -5.65409700160401       -1.64099901360158       -1.35480531984390
C           -6.32133006546651       -0.77154103926452       -2.24884416049319
C           -4.22220897723346       -2.12442040510497        0.42727741867150
O           -4.70865420466440       -3.38348474126086        0.21949215615416
C           -4.35786414558591       -4.38034540256338        1.13276357829049
C           -3.39311970921843       -1.71864211799526        1.45193672493675
C           -3.02348886637964       -0.36095690119507        1.55320722416626
C           -1.90158997938219        2.66761820653785       -1.08696249538974
C           -1.18530018431382        1.36513196068938       -1.42611390453306
C           -0.01793149959651        1.16873991563281       -0.50551680064077
N            0.56389143583621       -0.06053955208126       -0.29600357025809
C            1.97362817934840       -0.13949947353801       -0.01717361304757
C            2.84280934750020       -0.63399103805111       -1.20307965334716
C            4.29534812675932       -0.53207393022025       -0.83339503727052
C            5.00446745289346        0.63988599642357       -1.02598518466513
C            6.32515387433101        0.75227339808446       -0.60924683830731
C            6.96120465582358       -0.30936193305122        0.01066520199256
O            8.25876342696784       -0.31914014945906        0.43876569308017
C            9.03465771389418        0.83509379392860        0.22773902954000
C            6.24118921912326       -1.50550208030518        0.22929940367156
O            6.93719362385684       -2.49594550459785        0.85820791598704
C            6.28935564045722       -3.71861404193675        1.08109850622982
C            4.92687813865453       -1.59471901623419       -0.18964387437552
C           -0.20155346618938       -1.27554893688083       -0.39852118598900
C           -3.84769820681425        3.32727190967240        0.37862696866442
C           -4.39516401079748        2.90723252370118        1.70422616070233
C           -3.70191175318233        4.81658485075663        0.33221312781113
H           -4.83902908775053        0.88465583119160       -0.99406816915135
H           -6.93749212556693       -0.02593513992841       -1.73189713301508
H           -6.98795316388811       -1.39456848675564       -2.85157665612038
H           -5.61305062471831       -0.26182188903898       -2.91124591896908
H           -4.66032843433178       -4.14788606796260        2.16119293416701
H           -4.88213480125896       -5.27715135414431        0.80481831141895
H           -3.28111690639884       -4.55786656344087        1.11210234613670
H           -3.02241988452104       -2.44973212663736        2.16320903083545
H           -2.39356899991430       -0.05607535094578        2.37191620074007
H           -2.67188879322471        2.88781013191607       -1.84162109125560
H           -1.15285148739858        3.46732563279560       -1.03591472263826
H           -1.91443546845076        0.56852342308162       -1.30676758773629
H           -0.87956613687376        1.40125772573070       -2.47778813509217
H           -0.82804349472289        1.89809991779756        1.19550335706045
H            0.68726284945218        1.99571257316363       -0.48443239342437
H            2.15758682814230       -0.78493398475316        0.85413665895625
H            2.29825334480680        0.87408645632251        0.22826285077248
H            2.64392261493067       -0.00839575039267       -2.08030157451743
H            2.57765683668139       -1.66336637030788       -1.44315593147219
H            4.53100213044720        1.48491425087323       -1.50494651108656
H            6.85027636207955        1.68098341312294       -0.77540939256251
H            8.63003811931150        1.70740163962063        0.75584422855191
H            9.12325240858758        1.07288756448866       -0.83727638747635
H           10.02357299386784        0.60343740446677        0.62041754493122
H            7.02933470947772       -4.35439569796344        1.56389677205072
H            5.42383698815536       -3.60702937300723        1.74353799156851
H            5.96591373192089       -4.17717055576053        0.14013567871535
H            4.35837059698190       -2.49511604251893       -0.02074212958869
H           -0.77556008295639       -1.35717111007612       -1.32318856160721
H           -0.92196027997087       -1.32111308038956        0.43478771370545
H            0.44229443505853       -2.13881418410949       -0.38152019981258
H           -4.46707057897412        3.00417294137919       -0.46646912567247
H           -3.71380519372199        3.18288498124408        2.50830386967918
H           -4.35328549259666        1.81675955820214        1.67733987936264
H           -5.40613387882726        3.25647495860200        1.88795920693115
H           -3.02850728381338        5.14544517008534        1.11332519537938
H           -3.34545229567943        5.12207883500217       -0.64444842319696
H           -4.67289909789809        5.25323648749271        0.51394062405793
H           -0.46597454882111        3.59282936004913        2.58598596939415
