72
 energy: -3.609218232487 xtb: 6.6.1 (8d0f1dd)
N           -1.47116221977281        3.00645254103763        2.22410527259482
C           -1.55297294572824        2.27431512453421        1.20999425342658
C           -2.72744113414045        2.14649892577199        0.27894232178062
C           -3.32525432321712        0.69615570519312        0.39443829312250
C           -4.31292946818752        0.25474029433912       -0.50804465972297
C           -4.82602170746349       -1.03569980467628       -0.50095011501333
O           -5.77895728140503       -1.51863485428152       -1.36040440329076
C           -6.37861401816041       -0.64502081688473       -2.28527315036748
C           -4.36159822721171       -1.97793266441732        0.44269632672545
O           -4.93247061796791       -3.21501768793640        0.36768710344967
C           -4.59972115160136       -4.16475060562159        1.34652433121646
C           -3.42235243296204       -1.55683143964589        1.36718462091865
C           -2.92543764843796       -0.24710356188421        1.33713776719620
C           -2.14042464527469        2.37454469200350       -1.14581859130424
C           -1.24020371278418        1.23275771314365       -1.63184600381336
C            0.01383931755637        1.15719920597544       -0.82563785698644
N            0.62518860980864       -0.05330234531645       -0.51211877226497
C            2.00208724548163       -0.06115200947158       -0.13603019961119
C            2.92303278344607       -0.56638414945215       -1.26861925008118
C            4.35282559397582       -0.45777806308470       -0.84530203340308
C            5.06516929538827        0.70946388013370       -1.04234646110465
C            6.37591356403695        0.82207519743714       -0.60189625740622
C            6.99194284564582       -0.23171569875917        0.04930235084062
O            8.27643563095263       -0.23601531743300        0.51126638165644
C            9.06277469631422        0.90772917472311        0.30024095940671
C            6.26715119291039       -1.42481919884690        0.26870751863510
O            6.95236720981925       -2.40872936210661        0.91774264923349
C            6.31122582124705       -3.63770461887022        1.13658859619713
C            4.96195023298706       -1.51719275031250       -0.17338340172772
C           -0.08004518412853       -1.30336006222178       -0.57461126514665
C           -3.87756122754209        3.13218165355625        0.53640228991062
C           -4.48038824628579        2.79622892297833        1.88911464526025
C           -3.46102723335410        4.59382956185471        0.50204633410579
H           -4.69874275793224        0.94149212164666       -1.24463494262650
H           -6.86856771529292        0.19749073770650       -1.78674012151093
H           -7.13284910222485       -1.23254441464884       -2.80972945010633
H           -5.65202385174867       -0.26669693923303       -3.01237774861257
H           -4.83747869206521       -3.81149609691861        2.35514568558808
H           -5.20470397107253       -5.04271473280818        1.12329127990055
H           -3.53987048477262       -4.43507410658752        1.30039772819327
H           -3.05151347575747       -2.25888671078936        2.10322670069413
H           -2.20163288284667        0.01818852531279        2.09085615871986
H           -2.95574798817936        2.49962493395232       -1.86666942235666
H           -1.54551559398350        3.29015660252656       -1.14715596830335
H           -1.80848154809994        0.30854668422464       -1.55742964617296
H           -1.03216163690878        1.41150902855115       -2.69814954960738
H           -0.72816461805490        1.63213242030268        0.79913939942979
H            0.69977828748506        1.99480728581920       -0.87445691007484
H            2.13911062869865       -0.69255763161951        0.74930501606759
H            2.29684670496587        0.95794716051881        0.12534436400907
H            2.74031236855419        0.04945525939288       -2.15195238055616
H            2.66132050795442       -1.59938398322293       -1.50124542881388
H            4.60339109074937        1.54438324653009       -1.54880870388264
H            6.90919101018997        1.74202158417805       -0.78096349755792
H            8.64593596203595        1.78734324709563        0.80408980167576
H            9.18281618119062        1.12625203304220       -0.76634830635081
H           10.03584784548690        0.67406806073024        0.72899285373340
H            7.04986620689650       -4.26378756174911        1.63466363877253
H            5.43479786221880       -3.52919112369008        1.78515534951732
H            6.00843844791650       -4.11022620762805        0.19554980114695
H            4.39313497526869       -2.42031444471111       -0.01119658567031
H           -0.35624883750958       -1.57591194878309       -1.59883084461192
H           -0.99994365301357       -1.25339018239783        0.01619853357822
H            0.54468978367653       -2.10071226013076       -0.17300304900124
H           -4.62521790794553        2.97497604051654       -0.25309157058655
H           -3.73943794779467        2.95130962424401        2.67113316567547
H           -4.76133532435170        1.74507755439379        1.90725627295578
H           -5.35688040916067        3.40633356349368        2.08333818215823
H           -2.69267309886402        4.78720556362337        1.24116354926943
H           -3.10380735026226        4.88510008171541       -0.48211889184968
H           -4.32434539182285        5.20621301054886        0.74529003721315
H           -0.57619035473506        2.95663079112429        2.70786643510802
