72
 energy: 51.124972830872 xtb: 6.6.1 (8d0f1dd)
N           -0.62304176565509        4.41412241975059        1.69776006094434
C           -1.37043812230718        3.74122292809140        1.04948527092694
C           -2.21442108526887        3.38430263326851        0.13714042596445
C           -3.78421143541146        0.29185006271275        0.90493962674875
C           -4.58930444838069       -0.02968728929061       -0.16450700277793
C           -4.81132020014108       -1.36670079313015       -0.42764016346255
O           -5.61696735069304       -1.83673920477243       -1.41218647353488
C           -6.30109658651178       -0.92171472559734       -2.23231846505335
C           -4.20043023815580       -2.33634650062724        0.39165529590103
O           -4.50688682512793       -3.59870724789704        0.04162283899936
C           -4.08415077295237       -4.62052411253453        0.88290262671172
C           -3.43647791951707       -1.98066314506884        1.48387419072351
C           -3.21717859072170       -0.62726544654447        1.73829010218926
C           -1.58646780596556        2.99722136456478       -1.15266192578672
C           -1.19707361972871        1.53144429161662       -1.21242141605679
C           -0.21382429787452        1.26820067093976       -0.07448425253216
N            0.47224455774469        0.02077370919057       -0.30397651439695
C            1.86396973645997       -0.12233919987562        0.05562337319868
C            2.73780709321741       -0.66090903532077       -1.11552290386962
C            4.20261009597357       -0.57419983155114       -0.77514851724651
C            4.91676368931595        0.59189548348783       -0.98773606265930
C            6.25252566220832        0.69207517538252       -0.62013986856386
C            6.90047952510745       -0.38011015561255       -0.03461226638327
O            8.20875603582680       -0.39448868268912        0.35675573274014
C            8.99262415886126        0.75551217717652        0.14537026327899
C            6.18427604135570       -1.57698734139595        0.18940100788981
O            6.90155197520259       -2.57738079994166        0.77558196856190
C            6.26762496420324       -3.80433074187206        1.01313835102893
C            4.85493390652191       -1.65492508700031       -0.18212505995823
C           -0.29399615057430       -1.20249923512190       -0.25630672222148
C           -3.68738864418836        3.55036804749552        0.25487236199842
C           -4.13357172995055        2.89427923461407        1.51704678333206
C           -3.98209051355402        5.02259581737076        0.17371272973056
H           -5.04833959752453        0.74565435487061       -0.76177843519471
H           -7.02008707080491       -0.29013918509754       -1.69015082380267
H           -6.84715203995529       -1.56035493232177       -2.92022052416691
H           -5.62064018566406       -0.27331923130977       -2.79239126828557
H           -4.45752784212946       -4.52888422215914        1.91518579620343
H           -4.50863132627796       -5.50154734567688        0.41577240814666
H           -2.99602003472897       -4.68490522694089        0.89519199345992
H           -3.02431811416926       -2.72136839171904        2.15015349301647
H           -2.62678754858714       -0.30814222284142        2.58356147478481
H           -2.29503336128026        3.24472828253458       -1.93882846139366
H           -0.69141768180211        3.62049050924693       -1.21411080898811
H           -2.08362725415718        0.91376679639929       -1.07087901594931
H           -0.76298978416294        1.30803818325430       -2.19382812953489
H           -0.78486844666571        1.38230264412072        0.90234985376723
H            0.56577096915502        2.03371928474626       -0.06191818219566
H            1.99370725645576       -0.78443828125697        0.92731548697684
H            2.25178507780854        0.86269359740467        0.31999498021320
H            2.53761397803661       -0.06038250384734       -2.00799891268940
H            2.47555708474035       -1.69497338399816       -1.34631656789605
H            4.43517963943759        1.44206870312087       -1.44764650273434
H            6.78096596652309        1.61923737506476       -0.79322898017394
H            8.61514668373316        1.62204453692661        0.70108655389925
H            9.05655384517986        1.01149431423947       -0.91615016952600
H            9.98943643890607        0.50775267661523        0.50958860358412
H            7.02437514312090       -4.44138174801757        1.46822420906154
H            5.42239798128348       -3.70187976904685        1.70253228169200
H            5.92234714307019       -4.25848907945584        0.07839205126215
H            4.30248753701554       -2.56570982901692       -0.01754591699131
H           -1.17400159538962       -1.12393904312790       -0.89935725928666
H           -0.61151480683982       -1.43138930092981        0.77339535516626
H            0.28916813331554       -2.02841763129623       -0.66335290084502
H           -4.16042629359933        3.07444440940341       -0.60120636750705
H           -3.58133622074050        3.23169893011552        2.39187002792815
H           -3.91373922909893        1.68853330469712        1.33230231950401
H           -5.21163710519778        3.05821697775759        1.69780081950833
H           -3.46798854960335        5.52658185763713        0.98686392416829
H           -3.62171789622959        5.39686864576006       -0.78187441005928
H           -5.04293187545111        5.19414679711754        0.24019184345042
H           -0.15986705464048        4.15389823802354        2.52526087347391
