72
 energy: 88.873760006039 xtb: 6.6.1 (8d0f1dd)
N           -1.16874035556312        3.97262368532222        1.94465688601468
C           -1.44845355625882        3.00672846493712        1.21960188793101
C           -2.44308220525107        2.85086608234998        0.23516256521453
C           -3.51737694954030        0.49917423673088        0.71107691017537
C           -4.42294230975300        0.12134810048520       -0.26757826032391
C           -4.76160129829632       -1.20911197559462       -0.42547739764279
O           -5.63223625188923       -1.69037495366833       -1.36401665525433
C           -6.31125486021786       -0.81127897373014       -2.24010589314959
C           -4.20823045549742       -2.17800312037491        0.42692316626099
O           -4.65047986549218       -3.43941293581818        0.17676253815192
C           -4.28812434410333       -4.44260107487979        1.07186410749980
C           -3.39835849437163       -1.79290918748675        1.47015820802197
C           -3.07049647605725       -0.43660531113318        1.61091342811866
C           -1.81592403165720        2.75785001754527       -1.09742026202688
C           -1.18406807446125        1.39382604843220       -1.36051369078310
C           -0.05075650287076        1.18145756061927       -0.39579118986426
N            0.53938802823999       -0.03935588224250       -0.28426846766930
C            1.95176508021391       -0.13724124914193        0.00971322317896
C            2.81395622337441       -0.64227720827803       -1.18093932885045
C            4.27340972637162       -0.54719833565281       -0.82286771102754
C            4.98364521180193        0.62393144458391       -1.01859552840626
C            6.30814626472082        0.73464468746435       -0.61218363691789
C            6.94876765875110       -0.32947594794184       -0.00114817979451
O            8.24866062751939       -0.34068493662752        0.41752878443872
C            9.02490540575004        0.81469053645486        0.20711735049843
C            6.22971050332002       -1.52652745152115        0.21796500449550
O            6.92999034739314       -2.51902294608129        0.83862517271810
C            6.28335024097632       -3.74138141838076        1.06472394484666
C            4.91154502836415       -1.61345145505173       -0.19113900235572
C           -0.22323754907076       -1.26101814397599       -0.35274546844585
C           -3.81761579169422        3.38701276138047        0.33834840364138
C           -4.34604861131323        2.92069627819273        1.65262592545655
C           -3.77683370777396        4.87885207083172        0.28701606397061
H           -4.89109537673106        0.85018193159864       -0.92989229530047
H           -6.95551872744431       -0.09267146448033       -1.71751352191399
H           -6.95166419139844       -1.43997922732929       -2.86390183831286
H           -5.61151684931460       -0.26617799840441       -2.88177783962271
H           -4.60560854696903       -4.24272178066198        2.10373473382405
H           -4.78844499448441       -5.34001544058402        0.71222247674429
H           -3.20764043300429       -4.59121607410359        1.05730922588226
H           -3.02294486464439       -2.52619235107196        2.17051310729705
H           -2.45566732589889       -0.11024692138434        2.43611033162434
H           -2.57592072905435        2.98554601357945       -1.85468736767185
H           -1.01556859491084        3.50592021941426       -1.05793412066711
H           -1.96662087501673        0.64709971779541       -1.24127798106570
H           -0.83629101285849        1.37954656027691       -2.40298288142087
H           -0.89892613581515        1.91560212386804        1.18355993799614
H            0.66207909284023        2.00034738007793       -0.37817793111760
H            2.12044357223958       -0.78974871061666        0.87513632161210
H            2.29719482395037        0.86558210559619        0.25981982914197
H            2.61655302194846       -0.02121102681864       -2.06112498112567
H            2.55097000966929       -1.67333726823021       -1.42047258014239
H            4.50810367790742        1.47116912372356       -1.49158564297068
H            6.83252662904800        1.66438698167721       -0.77755714200615
H            8.62547957843231        1.68539541661934        0.74189601972992
H            9.10639462485887        1.05750678198957       -0.85712139015087
H           10.01688246262778        0.58113651435497        0.59120612035724
H            7.02572200872730       -4.37851509080004        1.54202375125967
H            5.42206135375131       -3.63026443158142        1.73264130414933
H            5.95433573939386       -4.19747975665094        0.12468455597828
H            4.34555758628356       -2.51482585603049       -0.02141918630542
H           -0.87294912829506       -1.28551443940615       -1.22194067643580
H           -0.86397165362839       -1.35614464851922        0.53848576087399
H            0.42042353050909       -2.11777311474464       -0.45402087858723
H           -4.39741898494543        3.01791548075876       -0.51361133140346
H           -3.71899884387844        3.24178522891592        2.48060764896988
H           -4.22131389751970        1.82360169577262        1.58987625567649
H           -5.38384215271605        3.20225313751057        1.82683570175939
H           -3.13207821833615        5.24667472969583        1.07540389092250
H           -3.41904674634037        5.18950168839964       -0.68729994772432
H           -4.77319276821196        5.25757117953096        0.44747396594012
H           -0.41363723556106        3.75761165520395        2.57173026533588
