72
 energy: 0.503294988744 xtb: 6.6.1 (8d0f1dd)
N           -1.45846458149285        3.12684126509957        2.20043428553817
C           -1.55144463155042        2.34469581266621        1.22644632885662
C           -2.71464481010922        2.19317921803327        0.28857826192877
C           -3.32351590494167        0.71675705164675        0.42835671862096
C           -4.31370945071054        0.25830557993287       -0.47430906810639
C           -4.80990833996043       -1.04229439071606       -0.48734774309628
O           -5.75605014097992       -1.53142486403757       -1.35774752950841
C           -6.36878581430995       -0.66195374317201       -2.28012826404945
C           -4.33864637244517       -1.99406785979024        0.44365707795279
O           -4.89900091957276       -3.23628662182440        0.34720897661884
C           -4.56534376052566       -4.19614958092310        1.31567157124839
C           -3.41301376273333       -1.56611966565298        1.38173015483150
C           -2.94007190971629       -0.24138194176619        1.36927167048057
C           -2.11181186776217        2.41303287843986       -1.12873632358203
C           -1.22933987669298        1.25564563651550       -1.60176561033798
C            0.01405643780723        1.16655228216935       -0.77764426561822
N            0.61915906041639       -0.05768440414252       -0.47938133208387
C            2.00068146249838       -0.07559471806735       -0.12067892365771
C            2.91405876086088       -0.57815188818482       -1.26152244113698
C            4.34681282700260       -0.47000243304740       -0.84655800393164
C            5.05826641959835        0.69834525213840       -1.04116037623239
C            6.36990796301649        0.81141545057340       -0.60241595369653
C            6.98909326898559       -0.24351612737088        0.04403648737550
O            8.27627883392563       -0.24869290756133        0.50104543212781
C            9.05945541627746        0.89737747891470        0.28966310348542
C            6.26502555507464       -1.43696093972002        0.26277058958792
O            6.95157041700779       -2.42190712342449        0.90979690886448
C            6.30783354366212       -3.64917520998291        1.12838961457452
C            4.95890029198326       -1.52909221365162       -0.17724856755478
C           -0.09754912973882       -1.30192675427093       -0.55103770610359
C           -3.87988732290413        3.15852104583629        0.51239068743579
C           -4.47349968732224        2.81094815800827        1.86204749066969
C           -3.49479564626292        4.62529698101266        0.47747623187603
H           -4.71676101909168        0.93936082537066       -1.20929155546060
H           -6.87849789369401        0.16654787130316       -1.77779810209301
H           -7.11090846287727       -1.25611221782919       -2.81607314209558
H           -5.64461983826359       -0.26403848905839       -2.99933142518033
H           -4.81349441118974       -3.86046495541398        2.32768870566761
H           -5.15865232859054       -5.07877537270517        1.07847325410296
H           -3.50272354756167       -4.45391473960147        1.27364262489936
H           -3.03924617208691       -2.27427009219583        2.11451215302396
H           -2.22766505497807        0.01710437218015        2.13428627998819
H           -2.92014391609364        2.55818438151783       -1.85679840031323
H           -1.49438065729463        3.31398710036241       -1.11702739232160
H           -1.81462202827985        0.34311360577526       -1.51966961222454
H           -1.01512747865755        1.42186684776372       -2.66608369274119
H           -0.75028880226499        1.63240919155844        0.87747985369828
H            0.71081151445343        1.99628881445083       -0.81962531421726
H            2.14926798302118       -0.70777867020403        0.76221159686773
H            2.29567658025551        0.94384919480985        0.13901765362138
H            2.72681668706887        0.04066050138253       -2.14254799161366
H            2.65042460546737       -1.61024311842688       -1.49513172761020
H            4.59393179779982        1.53510855187705       -1.54236124267130
H            6.90133274757448        1.73334170292898       -0.77804492617278
H            8.64356517913025        1.77566392514981        0.79711334274087
H            9.17398911615614        1.11892688426680       -0.77688130901422
H           10.03559638665016        0.66531860885299        0.71241813428748
H            7.04565458817745       -4.27751683866528        1.62467272429040
H            5.43254186820085       -3.53939384535169        1.77831969690012
H            6.00174846213103       -4.11890266046282        0.18699325319152
H            4.38897726273831       -2.43111881540889       -0.01360799712074
H           -0.42154377321636       -1.54717710404514       -1.56875457934422
H           -0.99272473881171       -1.25928350764957        0.07832573025721
H            0.53319357137134       -2.11963037861104       -0.20104532875784
H           -4.61212688814715        2.97818710080667       -0.28778324505531
H           -3.73215729868983        2.98244629858752        2.64239761107759
H           -4.70573097328146        1.74698335248775        1.87641428384444
H           -5.37225294732363        3.38516508776209        2.06010096142400
H           -2.73905799818746        4.83831553998801        1.22336705792720
H           -3.13741250065089        4.92030589773423       -0.50505133738882
H           -4.37449678148843        5.21543775685575        0.71341112141199
H           -0.56830378150731        3.04943771334122        2.68866294470427
