72
 energy: 56.036215912270 xtb: 6.6.1 (8d0f1dd)
N           -0.71513075533536        4.35727435784620        1.71885375188945
C           -1.41668970926863        3.65095811438134        1.05906904620932
C           -2.25508861511896        3.30263814818996        0.14418037886052
C           -3.74507067857723        0.31776374747531        0.87553793843204
C           -4.56151759870126       -0.00449807979583       -0.18304194087369
C           -4.79834178979166       -1.34130438711063       -0.42913163689412
O           -5.61371885271827       -1.81367591261678       -1.40461628165311
C           -6.29994562599689       -0.90304985245661       -2.23261278587714
C           -4.19283120519968       -2.30767739955387        0.39572175575963
O           -4.51659319117751       -3.56742588705573        0.06190084912422
C           -4.11356449728237       -4.58740911302621        0.91432074052481
C           -3.42479357874541       -1.95063788172550        1.48329055806302
C           -3.19044941199735       -0.59658130288837        1.71998295990502
C           -1.61639695178515        2.95922431521656       -1.14600527614748
C           -1.18876198403072        1.50725196551517       -1.23633110150623
C           -0.19647917291957        1.26239476762161       -0.10128615101947
N            0.47989838654792        0.00632072861986       -0.28160641767549
C            1.87326106532463       -0.12695858187962        0.05243781115486
C            2.74841021533627       -0.65755567479908       -1.12634834421429
C            4.21341425135962       -0.57045801109090       -0.78321973576035
C            4.92774385327046        0.59623274586347       -0.99343488275630
C            6.26192796178303        0.69825915342201       -0.61999803991147
C            6.90902379585631       -0.37267034163255       -0.03058807415398
O            8.21438319523791       -0.38422516908065        0.36870383793400
C            8.99782762456316        0.76565378704850        0.15588725437514
C            6.19271498093909       -1.56961317608172        0.19294487978092
O            6.90567873390756       -2.56764322388886        0.78726209602493
C            6.26996198478558       -3.79395540768145        1.02236037748938
C            4.86490776250749       -1.64897719155249       -0.18463614256042
C           -0.28608495369543       -1.21367090677833       -0.26191838249836
C           -3.71659055849961        3.52214965998605        0.26369088297553
C           -4.16945353284528        2.89861940596001        1.53872067082632
C           -3.95137404678436        4.99914122213591        0.18984949756706
H           -5.02219468349075        0.76531042000697       -0.78792137705102
H           -7.00921439812644       -0.25785377011695       -1.69516571693203
H           -6.86230892223310       -1.54101612100764       -2.90820926259105
H           -5.61790045070232       -0.26738461230933       -2.80587006201908
H           -4.47690362199196       -4.47614122885002        1.94659252419516
H           -4.55436643667645       -5.46867133671195        0.46377567720838
H           -3.02833786009157       -4.66993931585913        0.92027161855367
H           -3.02341198461521       -2.69022994634423        2.15722137528110
H           -2.60111581693945       -0.27051809649778        2.56363836688157
H           -2.33851950821873        3.20700087826786       -1.92187213816104
H           -0.73421403090709        3.60855232367199       -1.17235143951797
H           -2.06208087612373        0.86885437856984       -1.09864049693990
H           -0.76394214352228        1.31551342301692       -2.22856202945941
H           -0.78031943343007        1.44456550396136        0.88460762150175
H            0.58196911823225        2.02610937664040       -0.11066492173588
H            2.01936604438777       -0.79095884823057        0.91993705978735
H            2.26471066012529        0.85711054708410        0.32063660726790
H            2.55020428896215       -0.05334269311733       -2.01635757035391
H            2.48746146873519       -1.69153545582191       -1.35922533483014
H            4.44733504676125        1.44595157288621       -1.45544026497102
H            6.78951102945644        1.62625244768652       -0.79100997006978
H            8.61727191032677        1.63327389808776        0.70774456937640
H            9.06507756918473        1.01867338972221       -0.90616167542628
H            9.99363585344311        0.52003479856653        0.52368934534723
H            7.02412370072309       -4.43101934552749        1.48144066709782
H            5.42188286151306       -3.69005057261800        1.70798901950245
H            5.92827088655386       -4.24864705476179        0.08648188907025
H            4.31083750711942       -2.55850919136206       -0.01887717512311
H           -1.13008493459623       -1.14672585600918       -0.95556027259827
H           -0.66802490396540       -1.42089563572895        0.75377793384383
H            0.31643683767268       -2.04012279642797       -0.63020546726345
H           -4.20735653255150        3.06575515038490       -0.59121896113217
H           -3.61233412520456        3.25647039473610        2.40143765908958
H           -3.93363580084792        1.74240643599460        1.36459401615641
H           -5.24097967611104        3.07894042379186        1.71783202915231
H           -3.41229377449221        5.48032856366511        0.99975690822113
H           -3.59013747536767        5.36145782745964       -0.76831703184171
H           -5.00255426137228        5.20442650948124        0.27288465099446
H           -0.22488512817298        4.10322030408415        2.53336037461688
