72
 energy: 61.300157836954 xtb: 6.6.1 (8d0f1dd)
N           -0.80531299351502        4.31990312678607        1.73350637051516
C           -1.44400791545106        3.55370050024335        1.07391765351603
C           -2.28831950118760        3.22615079253712        0.15505938015265
C           -3.70729769561664        0.34548964441413        0.84933523885236
C           -4.53549910265513        0.02046461848449       -0.19744543259078
C           -4.79155424313520       -1.31584000369116       -0.42518642423835
O           -5.61220493798916       -1.78967168653154       -1.39602142295855
C           -6.29943249036089       -0.88465327415179       -2.23337182550423
C           -4.20229627768695       -2.28205570616104        0.40999914571861
O           -4.54122028245503       -3.53973849975169        0.08696614105078
C           -4.14659027944616       -4.55763964371008        0.94603568055282
C           -3.41784595820818       -1.92121307403764        1.48368276330000
C           -3.16597849148372       -0.56663346268039        1.70298740673595
C           -1.65103262131603        2.91986755150755       -1.13965508646725
C           -1.18386749050419        1.48330819583301       -1.25748287280148
C           -0.17765248206665        1.25134971221829       -0.12483797690892
N            0.49193203518640       -0.00433216946712       -0.30343694154457
C            1.88876865347528       -0.13087592532883        0.04437454154701
C            2.76196324754477       -0.65552510633423       -1.13727550363761
C            4.22568474688144       -0.56627335763095       -0.79081277462210
C            4.93865702157890        0.60164873295524       -0.99794932343678
C            6.27098719855477        0.70548331547267       -0.61841154440654
C            6.91725336303738       -0.36421447066250       -0.02541986310538
O            8.22011182239633       -0.37330909883989        0.38053646547644
C            9.00284181160450        0.77644071180408        0.16613375409449
C            6.20095816528769       -1.56123653280098        0.19766969847398
O            6.90990077940801       -2.55738758102256        0.79895293099377
C            6.27193301401190       -3.78315805377260        1.03111467645334
C            4.87493046348179       -1.64225825972555       -0.18593012054690
C           -0.27404714856267       -1.22465253838288       -0.27452265935833
C           -3.74037298744776        3.49197157166695        0.27339539918698
C           -4.20533488176395        2.90554148220774        1.55899565869786
C           -3.91978600418916        4.97340080217357        0.20572209759310
H           -4.99623162631615        0.78430696912494       -0.81307520663232
H           -6.99727866131208       -0.22515111570804       -1.70098944226209
H           -6.87787757874335       -1.52133595147986       -2.89724688415613
H           -5.61548766013575       -0.26455944378186       -2.82099298404253
H           -4.49924321769405       -4.42805815390462        1.97865143668861
H           -4.60054336324088       -5.44115594859791        0.51270246289694
H           -3.06289479242892       -4.65453629794683        0.94577689828840
H           -3.02318059427025       -2.65915441094568        2.16347725705402
H           -2.57337263022587       -0.23575948740425        2.54277632688168
H           -2.38469545053965        3.16537681275745       -1.90681579473441
H           -0.78232430795367        3.58781655225814       -1.13965160514770
H           -2.04269662073731        0.82337977374145       -1.12566679494862
H           -0.76763212345319        1.32602591708761       -2.25980126890520
H           -0.77441836958575        1.49550573810681        0.87423305930507
H            0.59766950869893        2.01835129271083       -0.16753577804476
H            2.03762181877160       -0.79406972112029        0.91063218085575
H            2.27794977198369        0.85434585719029        0.31395374454730
H            2.56375938393300       -0.04820358553294       -2.02521389255918
H            2.50071393263218       -1.68880085627307       -1.37214278464204
H            4.45886597892830        1.45074619629120       -1.46175314659972
H            6.79751813368468        1.63421278864802       -0.78730570389345
H            8.61867931505139        1.64490775578297        0.71431687217650
H            9.07259512718221        1.02700075189222       -0.89658356966315
H            9.99807641301522        0.53311408362401        0.53674890187947
H            7.02297610884739       -4.42119607644138        1.49412832291777
H            5.42084621555460       -3.67784656316789        1.71281784102352
H            5.93297369345092       -4.23767917226736        0.09403569525194
H            4.31887689623381       -2.55052996952090       -0.01950665785893
H           -1.08160610983376       -1.17441053244931       -1.00855413887940
H           -0.71285211208004       -1.40744010452439        0.72503346421840
H            0.34221212217783       -2.05776172410660       -0.59485596750563
H           -4.24908404193671        3.05491934655620       -0.58127148835676
H           -3.64136865778771        3.27891855519062        2.40979161698852
H           -3.97944505666647        1.77402042123225        1.40319092143279
H           -5.27004132859693        3.10485829076747        1.73491348307923
H           -3.35823891095100        5.43131597059277        1.01213938515157
H           -3.55927290615799        5.32619594976473       -0.75450711197665
H           -4.96045611247891        5.21392956373725        0.30603582364268
H           -0.28456410624649        4.04575626467504        2.53336335368013
