25
 energy: 22.189389151286 xtb: 6.6.1 (8d0f1dd)
C            3.28773360357832        1.22770952327534        0.10405331051262
N            2.34863247363535        0.14562310918469        0.03999363663805
C            2.69124667179885       -1.19777378614707        0.07630678911715
N            1.52011613341522       -1.91472392842656        0.04923646131194
C            0.43206465705404       -1.11562783816076        0.00711594030888
C            0.94041562479018        0.20062958098967        0.00032728970713
C            0.08777297384628        1.30242722614989       -0.06624271775277
O            0.40227690774109        2.49416141839892       -0.08147856813566
N           -1.35318580341748        0.91290234034167       -0.06828359319942
C           -2.18738288189953        2.10952223732122       -0.09141425095788
C           -1.88094145068007       -0.36898053178856       -0.04104171976439
O           -3.03403239936191       -0.78111865711678       -0.04506719364630
N           -0.94115142706702       -1.41326776772397        0.01928672386262
C           -1.71260252584059       -2.70251999499912       -0.00073288369620
H            3.79496881851059        1.26941142613270        1.07771645246299
H            4.05965250930830        1.11441351690379       -0.66655422607116
H            2.76152002818078        2.16854249962543       -0.04901152460894
H            3.67560707115295       -1.61172695872558        0.12606641603348
H           -1.53928682139138        2.99232704662623       -0.03976462402584
H           -2.75740922375210        2.16785349901256       -1.01595882640614
H           -2.84622679700265        2.13794491737108        0.77177494706015
H           -1.00077556919206       -3.42627797386716        0.39396617491465
H           -1.83469636757166       -2.98601891125807       -1.05543054277288
H           -2.82938279428525       -2.72949520825633        0.50083879490842
H            1.50632940919467       -2.91589862674917        0.05936738357353
