25
 energy: 145.754910387376 xtb: 6.6.1 (8d0f1dd)
C            3.36777266460514        1.30137389586829        0.13119491626249
N            2.41066408436266        0.21324519020488        0.08941473180377
C            2.74665000782967       -1.11085886765238        0.17221176188799
N            1.61219256528681       -1.87397400442168        0.13344531154788
C            0.51300118854177       -1.07020894979195        0.02431147420686
C            1.01710200735224        0.24495279828416        0.00888109328206
C            0.11248374970579        1.34807516701302       -0.04313507369808
O            0.48743918668087        2.52601169680422       -0.09842639051707
N           -1.25243176272552        0.94877069329173       -0.03868216183648
C           -2.11567351364792        2.12505629683555       -0.11944164390247
C           -1.78440578533767       -0.29983518130239       -0.03821090204525
O           -3.35560079143376       -2.05856518549737        0.21737031993418
N           -0.85362073186262       -1.33531484805153       -0.05776671514588
C           -1.53436765401606       -2.53063246059382       -0.31434180694868
H            3.91858612030902        1.32694951910515        1.08064604140379
H            4.12501524192466        1.22071500991559       -0.66047732450694
H            2.86270842201706        2.26045165172071        0.01489097874520
H            3.74982661207032       -1.46509115046415        0.22606450062654
H           -1.43743544345033        2.97715711362389       -0.04045122553454
H           -2.63996228391042        2.20550667493213       -1.07304009672750
H           -2.83265446972666        2.14505603316961        0.69269905524237
H           -0.96530125561669       -3.45155610273682       -0.31421286030343
H           -2.39716465061575       -2.49622807633595       -0.95736274992460
H           -3.93380899303649       -2.95862576304526        0.40365515064189
H            1.67116593009298       -2.87586969575100        0.14205492375078
