25
 energy: 131.712372898416 xtb: 6.6.1 (8d0f1dd)
C            3.35256264294605        1.29792613454967        0.12882609019518
N            2.39929496734374        0.22045915235545        0.07954548352280
C            2.75113056979741       -1.11458226498660        0.16228280054370
N            1.60707552855031       -1.87980103410719        0.12001046317033
C            0.51054749118136       -1.08713808810108        0.01772325947777
C            1.00570613156409        0.23150303126807        0.00914484531930
C            0.10556920016562        1.33196323558246       -0.04615608054783
O            0.48120895924343        2.51189275164572       -0.10404841474946
N           -1.26104465886079        0.94680762629114       -0.04273681951684
C           -2.11505439575090        2.12456966869174       -0.11829281519322
C           -1.77829324885590       -0.29084139686167       -0.01838317204236
O           -3.16460702066674       -2.02290460315384        0.21764850858227
N           -0.86936160566044       -1.34435505978097       -0.04371042533055
C           -1.66965411669038       -2.52553495490697       -0.25199389398609
H            3.89786950554796        1.32378632312573        1.08440202849375
H            4.11633268513258        1.20721571738669       -0.65797409952230
H            2.84599891352422        2.25396810603020        0.00601124334237
H            3.74858173144340       -1.48254364241176        0.20850094375600
H           -1.42091835171710        2.96249118701349       -0.02737572133017
H           -2.64180641297869        2.22199776904259       -1.06623993944122
H           -2.82495868071863        2.15026072045215        0.70402583145243
H           -1.06372406727596       -3.45901068044347       -0.18009160799711
H           -2.32418823653418       -2.61744804230918       -1.08929651166228
H           -3.76260652742608       -2.99204828376450        0.41269023465835
H            1.66410448380156       -2.87953431270485        0.10900185927747
