25
 energy: 6.888155027644 xtb: 6.6.1 (8d0f1dd)
C            3.26872219621927        1.20521234564324        0.09604103724185
N            2.32938709396809        0.12866272628611        0.03544922790565
C            2.65285597391739       -1.21633595178623        0.05732948229373
N            1.47682786088518       -1.92118362840051        0.02537316031483
C            0.41768342710751       -1.08570394577704       -0.01765114204516
C            0.93095985766443        0.21946380087469       -0.01195671054594
C            0.08482886885937        1.33151823881429       -0.04596257763846
O            0.41373978117563        2.52637834628714       -0.05764456095911
N           -1.33363696511408        0.95570779988537       -0.05317597089208
C           -2.20572628371139        2.12006155775546       -0.07518715762029
C           -1.87803344242723       -0.31533555425083       -0.05394577567626
O           -3.04776300459683       -0.67716701648891       -0.05889681135649
N           -0.94357853413869       -1.36270512925519       -0.02616419426254
C           -1.63099061203708       -2.65076713657498       -0.03471377695826
H            3.76148624496159        1.24841617837523        1.07490230231040
H            4.04207196671787        1.08100567140214       -0.66884581140578
H            2.73764376010426        2.14140345932728       -0.06823761552155
H            3.63404955170957       -1.63326653297005        0.09297027218384
H           -1.58912125509053        3.02363858220817       -0.03079147175134
H           -2.78581192849507        2.13931497275209       -0.99512962791478
H           -2.86378095909196        2.11217629425481        0.78885351808978
H           -1.04412233735865       -3.32937443129555        0.58239093399723
H           -1.56696107363343       -3.06693397917035       -1.03963206573443
H           -2.74694194771451       -2.55853267865240        0.28424696069586
H            1.44456158448772       -2.92289706271507        0.03242943041459
