  25
        -42.09929963
 C          2.7459594330        1.1924021020        0.1823362388
 N          1.8029299704        0.0968499202        0.0250697496
 C          2.2994271044       -1.1216390784       -0.0724093895
 N          1.6328267334       -2.3101235055       -0.1660023977
 C          0.3477388004       -2.6995172702       -0.0799312989
 C          0.4393981840        0.3882966558        0.0201681857
 C         -0.1442625896        1.7319627349       -0.0160461160
 O          0.3661938834        2.8290673581       -0.0514694473
 N         -1.4965425271        1.5149457181       -0.0061208308
 C         -2.5497461492        2.4840715570       -0.0706847648
 C         -0.6289658748       -0.4906132977        0.0309052551
 O         -1.8024851135        0.1758085551        0.0229314580
 N         -0.6851929553       -1.8732761355        0.0355622240
 C         -1.9944852904       -2.5127849706        0.1293342407
 H          3.1826305543        1.1685939008        1.1822731198
 H          3.5432844119        1.1118200414       -0.5551960743
 H          2.2334283954        2.1446715556        0.0493551922
 H          3.3779941096       -1.1934806887       -0.0720921726
 H         -2.0612220931        3.4572003906       -0.0922491304
 H         -3.1461984825        2.3431445772       -0.9744969350
 H         -3.1960782513        2.4062202085        0.8062918360
 H         -1.9918323362       -3.2090707924        0.9670036353
 H         -2.1938468201       -3.0727001142       -0.7842523382
 H         -2.7707433772       -1.7665792734        0.2744858911
 H          2.2574683021       -3.1037306020       -0.2725008613
