25
 energy: 20.163039318347 xtb: 6.6.1 (8d0f1dd)
C            3.20029545210755        1.33317424855900        0.12130290605225
N            2.38572415919645        0.13434032841404       -0.00942811873645
C            2.74639267655423       -1.19728279957719        0.06669928857848
N            1.60483871729441       -1.96653781225985        0.05419942012520
C            0.47477764722456       -1.20990824793487       -0.03291993114613
C            0.97470378281720        0.12612841489751       -0.06396494372878
C            0.18144061008171        1.28357481130306       -0.08532462073731
O            0.51753120959226        2.47382874003198       -0.11613031772194
N           -1.18549335809815        0.93478957448266       -0.06557983199561
C           -2.12535387175198        2.03911354899843       -0.05307734255396
C           -1.72843529525932       -0.29683151133897       -0.06108944430535
O           -2.94888232876821       -0.35617081636614       -0.05336581579262
N           -0.93427240951655       -1.49205544736350       -0.06286182683495
C           -1.93368999333635       -2.64333255015001       -0.08896380122915
H            3.87158574674306        1.29523914832474        0.98643886889745
H            3.82832559548137        1.52902479462005       -0.76143811103203
H            2.52917234120531        2.19098729670211        0.24974867531415
H            3.74692200136654       -1.57357193208335        0.10079818643019
H           -1.52601920214339        2.94656936220649       -0.04081991996412
H           -2.75086858748776        2.00005420416210       -0.94220184705618
H           -2.74989952220591        1.98273710150106        0.83580004223334
H           -1.95200274773750       -3.30881473072181        0.77433686018994
H           -1.97308987775147       -3.23179729377883       -1.00551170681473
H           -2.88326647634190       -2.10509062369577       -0.05505120184756
H            1.66938391967385       -2.96926949880179        0.10331706490598
