25
 energy: 38.937670700019 xtb: 6.6.1 (8d0f1dd)
C            3.52218724757172        1.78562810129161        0.11781019765170
N            2.84884150479351        0.51391029764193        0.06321880697609
C            3.36300912950420       -0.70336747009787        0.12326930214866
N            2.37583603776159       -1.62764048494480        0.08647334875306
C            1.15968312613937       -0.96755075118054        0.00168603865925
C            1.49336500142132        0.39118684151274       -0.02869025308640
C            0.46542602616576        1.38921253297178       -0.09113785456725
O            0.66845280150574        2.59773528767808       -0.12447643301658
N           -0.77814640469620        0.81592097436038       -0.08707703935981
C           -1.91105347394379        1.71616486382464       -0.06399734521111
C           -1.07853899718941       -0.58429676254587       -0.04526230780638
O           -2.24443559311172       -0.90197115776330       -0.02739229143197
N           -0.04575278734776       -1.46679190292901       -0.01790460730394
C           -4.37490382928925       -3.47798961334992       -0.18276119157682
H            4.29410628507845        1.78164301007776        0.88454062974211
H            3.95684904278302        2.03735759295177       -0.84843223323720
H            2.77408802886777        2.54963853145514        0.33967927831278
H            4.40595371481785       -0.92656057243928        0.19430960116676
H           -1.51133930676496        2.72765052342298       -0.07707640627502
H           -2.54344051571449        1.53625056710438       -0.93207645898010
H           -2.49307943681624        1.54001160125026        0.84041781166938
H           -4.56621101620895       -4.05683739995951        0.69553493337020
H           -4.66836015288332       -3.81106473866945       -1.15544802847513
H           -4.04447507887972       -2.47056403485307       -0.06705560404932
H            2.51136118999361       -2.62688339579435        0.14934730229177
