  25
        -42.17446796
 C          3.2307425866        1.1509684422       -0.0276502005
 N          2.2792406753        0.0736399364       -0.0064553021
 C          2.5515663700       -1.2374246472        0.0177608986
 N          1.3904341485       -1.9458204088        0.0348004652
 C          0.3546423475       -1.0594430644        0.0191121535
 C          0.9038540560        0.2245600228       -0.0044268341
 C          0.1225685205        1.4058486216       -0.0092291314
 O          0.4880220639        2.5611929302       -0.0273122895
 N         -1.3178230233        1.0990014340        0.0325711914
 C         -2.1200940049        2.1755387460        0.0887300978
 C         -1.7907885968       -0.1696999327       -0.0318277704
 O         -3.1102578639       -0.4324748783       -0.0732899059
 N         -0.9765321404       -1.2795999028       -0.0009832596
 C         -1.5170061529       -2.6240200796        0.0150341745
 H          3.8317524386        1.1475308845        0.8825826122
 H          3.8944422236        1.0545550301       -0.8873239879
 H          2.6861114090        2.0915832093       -0.0927096110
 H          3.5293750033       -1.6711778808        0.0251426874
 H         -1.6418362317        3.1332717763        0.0813162984
 H         -3.6301224604        0.3256756561       -0.3728509273
 H         -3.1803056636        2.0856832751        0.2188311215
 H         -1.2388523389       -3.1276009544        0.9420712345
 H         -1.1405360946       -3.1881122177       -0.8396297018
 H         -2.6002843524       -2.5705584650       -0.0440831544
 H          1.3217769693       -2.9517594469        0.0463185380
