25
 energy: -42.247433710198 gnorm: 0.007208199245 xtb: 6.6.1 (8d0f1dd)
C            3.19906535296339        1.13889802268617        0.07208004410005
N            2.27556703291453        0.05455468353332       -0.07221656747061
C            2.54764012960850       -1.23983922131222       -0.13594330025818
N            1.39639005146743       -1.95214985238477       -0.14025066951759
C            0.35647346259371       -1.07135574315092       -0.06894823127924
C            0.90917635151597        0.19762361976989       -0.03224174807414
C            0.08257656947902        1.39286500062344       -0.01818145035224
O            0.49102104467728        2.52788728572046       -0.04275546798551
N           -1.27009535915088        1.06248223045475        0.01515032857828
C           -2.22590596435160        2.16345240514632        0.04039352045563
C           -1.84302806921138       -0.19642840779050        0.04185137177991
O           -3.02692446022834       -0.36531993938013        0.10645893304198
N           -0.96362517986509       -1.30425700696669       -0.01836159521412
C           -1.51747790915822       -2.64336252469878        0.02932569118951
H            3.28330607471257        1.41679790573028        1.12787047403559
H            4.18350945457224        0.86287967336354       -0.30052199635604
H            2.82727513319873        2.01932505220599       -0.45975586027024
H            3.52853469068224       -1.66980411044847       -0.19013271764434
H           -1.66745034292981        3.09598600811935        0.02214913311720
H           -2.88468706049146        2.09991695498171       -0.82484587383705
H           -2.83397283180050        2.10292610057418        0.94222016303246
H           -1.12620677265623       -3.18501610109792        0.89093139806143
H           -1.29674799205033       -3.18618947215208       -0.88984483283043
H           -2.59775618146729       -2.54450567249821        0.13168353746171
H            1.33377428907894       -2.95912834943987       -0.19494266586376
