  25
        -42.17533883
 C          3.1655732253        1.1082419397        0.3458897386
 N          2.3150751036        0.1223113142        0.1828327055
 C          2.5124642091       -1.0786426866       -0.4036428895
 N          1.3464825116       -1.7897032945       -0.4329044319
 C          0.3620140101       -1.1043499582        0.1616187220
 C          0.9284086377        0.1827333331        0.6273723942
 C          0.0927331912        1.3350328452       -0.0173287553
 O          0.5993934761        2.3444339670       -0.4159333385
 N         -1.2415212462        1.0512210601       -0.0206347805
 C         -2.1727101002        2.1434530021       -0.3008860847
 C         -1.8392334469       -0.1990596920        0.1597316770
 O         -3.0238502296       -0.3416147820        0.2648653419
 N         -0.9679510512       -1.3035699487        0.1112134393
 C         -1.5369975404       -2.6200292248       -0.1197570002
 H          0.8574545394        0.3620227014        1.7085022630
 H          4.1655633503        1.0087924072       -0.0329641825
 H          2.8465608705        2.0171720027        0.8154053831
 H          3.4430273587       -1.4242066901       -0.7991617828
 H         -1.6361751986        3.0845208350       -0.2188938126
 H         -2.5848647891        2.0416601305       -1.3039867348
 H         -2.9874598913        2.1021144548        0.4202723182
 H         -1.0704838280       -3.3492633197        0.5402635617
 H         -1.4111462039       -2.9203787715       -1.1614842121
 H         -2.6019250709       -2.5597560866        0.1009960098
 H          1.2648581088       -2.7048112126       -0.8525929429
