  25
        -42.17706894
 C          3.2795957952        0.2579427325       -0.2924830869
 N          1.8652390455        0.1423792862       -0.1022714049
 C          4.0693721146       -0.7713346272        0.5016455308
 N          1.2359030418       -1.0237759457       -0.1254085317
 C         -0.0610871405       -0.7516117021       -0.0382221673
 C         -0.3038276515        0.6494063344        0.0284969966
 C          1.0010206880        1.2770266348       -0.0010856386
 O          1.3873124698        2.4183826845        0.0482240503
 N         -1.6235754160        0.8582079057        0.0487571632
 C         -2.3431187968        2.0930373758        0.0663723290
 C         -2.2596910621       -0.4121111450        0.0000012814
 O         -3.4389757931       -0.5960144342       -0.0100703997
 N         -1.2513082139       -1.3891355769       -0.0423609256
 C         -1.5345692827       -2.7957499135       -0.1036750423
 H          3.9253070986       -0.6276692623        1.5727001100
 H          3.4986665807        0.1324522740       -1.3652096055
 H          3.5511367460        1.2844483557       -0.0197293942
 H          5.1273595518       -0.6607544404        0.2707939073
 H         -1.6406410969        2.9222550006        0.1247268292
 H         -2.9495997255        2.1777453463       -0.8391818496
 H         -3.0252780901        2.1118935977        0.9194179447
 H         -1.1084400335       -3.3080070459        0.7605727104
 H         -1.1084544453       -3.2303262361       -1.0096099078
 H         -2.6174464539       -2.9186285128       -0.1085208945
 H          3.7526709546       -1.7816545788        0.2443581535
