25
 energy: -42.161173656813 gnorm: 0.006410943040 xtb: 6.6.1 (8d0f1dd)
C            3.39542969481910        0.88483451485095        0.33089200352290
N            2.38586865105992       -0.12115820105106        0.15127554177431
C            2.57473621796508       -1.43266018356502        0.04723841392843
N            1.38058943267406       -2.06307871760676       -0.09067949964936
C            0.40620738748354       -1.11671333919243       -0.06796066365007
C            1.03183844651386        0.12634105488944        0.08496098824948
C            0.30434951557415        1.32233124541786        0.18344767728929
O           -2.75997976028331        2.52276073671901       -0.71257850260842
N           -1.01669119696872        1.13434569789306        0.12629133459564
C           -1.87124016997196        2.33470114614043        0.31578593177521
C           -1.72265015675253       -0.06973477222152       -0.02149846030020
O           -2.91434521946657       -0.14266442613929       -0.03195738435400
N           -0.92530401932267       -1.23446179872912       -0.15299204608962
C           -1.58260080938527       -2.51730023692116       -0.30667998684970
H            3.87767777427640        0.77212764699157        1.30277132081347
H            4.15399731493220        0.80775105361084       -0.44769979322021
H            2.91513566315864        1.85977295034220        0.28098633528666
H            3.52390611257881       -1.92922697911512        0.07230426671607
H           -2.33743989337241        2.89328443874283       -1.50087683576671
H           -2.46552036126226        2.17687109368976        1.22661442253304
H           -1.16954467075397        3.16510250718953        0.46089206992622
H           -1.38132631759995       -3.15527015774942        0.55476804276043
H           -1.24930655498042       -3.00616756110866       -1.22237927053582
H           -2.65425103776894       -2.33149794735062       -0.36898169493666
H            1.26089547095542       -3.06205122412821       -0.18277259331037
