  25
        -42.01307907
 C          3.5320466276        0.9204063324        0.5241806473
 N          2.2657584675        0.3269827799        0.1526325887
 C          2.1859572123       -0.6255124330       -0.7648818404
 N          1.1364262568       -1.4358615882       -1.0051240421
 C          0.0952804198       -1.9315481938       -0.2834295684
 C          1.1549597142        0.8165666500        0.8327785645
 C          0.0085619023        1.1779028700        0.1509760279
 O          0.7171425109        2.2510428487        0.3161889938
 N         -1.1931900030        0.9161878115       -0.2784673803
 C         -2.0456660587        1.9915797878       -0.7862579272
 C         -1.8198499058       -0.3217683730       -0.0205055934
 O         -3.0156659234       -0.4112993023       -0.0387491989
 N         -1.0001361688       -1.4521491944        0.2533815254
 C         -1.7496308665       -2.4632570901        1.0185102157
 H          3.7614281728        0.6625367562        1.5591867365
 H          4.3270389614        0.5644939523       -0.1255046566
 H          3.4535193926        2.0056477984        0.4527748953
 H          3.1032411326       -0.8736038496       -1.2838154191
 H         -1.4995844886        2.9302136249       -0.7296859645
 H         -2.3160787589        1.7713733310       -1.8194954784
 H         -2.9552742294        2.0471290194       -0.1896039518
 H         -1.9495974367       -2.0764322780        2.0172739419
 H         -1.1520182902       -3.3680886074        1.0818346508
 H         -2.6988812223       -2.6760290159        0.5286467909
 H          1.3870814764       -2.1418435977       -1.7005135050
