  25
        -42.13508729
 C          2.4147428193        1.0869628229       -0.6923206049
 N          1.6489321844       -0.0933200906       -0.3890925104
 C          2.1064808170       -1.3258381123       -0.6163487547
 N          1.2523287730       -2.2213867144       -0.1175508969
 C          0.1825581507       -1.5735677306        0.5001674553
 C          0.4439019200       -0.1731768577        0.2926895496
 C         -0.3433093774        0.9112337588        0.8147087902
 O         -1.0961558909        0.7753625966        1.7731682653
 N         -0.2127964980        2.1973598349        0.2627688121
 C         -0.4710550883        2.5267516415       -1.1462390102
 C         -1.3065064938        1.5503526840       -1.8091830207
 O         -1.7644761886        0.4708220315       -1.8037673630
 N         -0.7141387335       -2.3125436615        1.0414763488
 C         -1.8904290833       -2.0297530361        1.7459160516
 H          2.1236609998        1.8979057250       -0.0278874928
 H          3.4735476653        0.8747960635       -0.5478635575
 H          2.2699273734        1.3860239830       -1.7326885376
 H          3.0302338749       -1.5523851410       -1.1108950998
 H         -0.6920492178        2.8395132940        0.8906285211
 H          0.4684165806        2.6157883199       -1.7112304085
 H         -0.9465659173        3.5128819751       -1.1882002416
 H         -1.9091923721       -2.6706045993        2.6338132956
 H         -2.7503715133       -2.3059526736        1.1267241606
 H         -1.9789706620       -0.9799778882        2.0512048764
 H          1.3419930756       -3.2264628352       -0.1307265138
