25
 energy: -42.175849209006 gnorm: 0.004635548629 xtb: 6.6.1 (8d0f1dd)
C            3.23529252599483        1.20538989577173        0.07786361347270
N            2.32907982746048        0.08923625702107        0.05788438365311
C            2.66067932790219       -1.20876582209858        0.07535089441355
N            1.53811436537150       -1.96816879924880        0.04779351249220
C            0.46220297830210       -1.12395825841771        0.01316908871581
C            0.95620513903005        0.17710818154804        0.01864731146973
C            0.10689504253264        1.33277639332432       -0.04103208765885
O            0.44119587271553        2.49906289604799       -0.07535547898204
N           -1.25226082376965        0.94265603412134       -0.05501252622952
C           -2.25168176218459        1.99725089014455       -0.08558012770931
C           -1.69519948259004       -0.33243915091613       -0.02727314186637
O           -3.00977205733477       -0.51638501757532        0.01779439480730
N           -0.87414374637640       -1.42644400724003       -0.03546289991982
C           -1.35854399554168       -2.69870518966794       -0.02593019176826
H            3.77875451609458        1.23686577262414        1.02308643268386
H            3.95327305482737        1.12349374454559       -0.73809211424100
H            2.65793359643585        2.12245587512244       -0.03373980533627
H            3.65856968080333       -1.59421438713646        0.10417659896204
H           -1.71899571769288        2.94588152450408       -0.09775616865214
H           -2.86989108487704        1.90242931687886       -0.97658558926606
H           -2.88848059668832        1.93599860308587        0.79561544348690
H           -0.67047865685667       -3.50100320015966        0.09284345710786
H           -2.33259254210744       -2.91297920130467       -0.41616790894719
H           -3.21266652501948       -1.43314028993770        0.27643323782262
H            1.51694257766860       -2.97616351943714        0.03850128938907
