25
 energy: -42.502578728851 xtb: 6.6.1 (8d0f1dd)
C            3.03186496596997        1.90912306939752        0.22717353895677
N            2.42254418831903       -0.14363676847007       -0.12680184862131
C            2.65552625933430       -1.41507504271681        0.13233156417403
N            1.48698453555724       -2.16114440495722        0.15831308586156
C            0.45409958891582       -1.28762417394112       -0.01383533974778
C            1.05583219267744       -0.04457372760999       -0.15211262992636
C            0.25448928095091        1.11463057769161       -0.37124498837980
O            0.60909202295387        2.19364379829457       -0.80195262817262
N           -1.10940362385399        0.91149395420769       -0.06862750543905
C           -1.93453973989186        2.10872148811321       -0.00086670109614
C           -1.72897808430469       -0.30412431516557       -0.04549895534900
O           -2.93541477254648       -0.38966535995101        0.01684582963665
N           -0.91143808300473       -1.45413443572900       -0.06194566463409
C           -1.66766700566778       -2.69317741054313       -0.09283844643104
H            3.64414644205189        2.08543371186698        1.04883809450137
H            3.51579536675966        2.02902812505913       -0.73726918565791
H            2.05217444319703        2.27188473946549        0.34689465436102
H            3.57769569744903       -1.97228943229467        0.22060845549565
H           -1.31357523101645        2.97851770027555       -0.03724707413531
H           -2.57939416237534        2.19314255246835       -0.84444735900070
H           -2.45118850670502        2.16900309017610        0.94497075914818
H           -1.51758961402674       -3.28460604012552        0.81281196243138
H           -1.43392096657127       -3.29170034445420       -0.97318147355013
H           -2.72012395922248       -2.36851733387923       -0.15552226297168
H            1.49040951821926       -3.16704127451676        0.18913106600950
