  72
        -99.30448400
 N         -0.9831392125        2.5686989867        2.0098720517
 C         -1.4774364734        1.8429235309        1.1594743896
 C         -2.7114306884        1.8363101970        0.3714393050
 C         -3.3760974282        0.4703626275        0.4744421688
 C         -4.4924779303        0.1719160748       -0.3085132961
 C         -5.1296802440       -1.0529421479       -0.2115372888
 O         -6.2066877373       -1.4315296444       -0.9337777809
 C         -6.7918555728       -0.5167528133       -1.8291206297
 C         -4.6468206002       -2.0235083978        0.7060513974
 O         -5.3381224270       -3.1817112044        0.7382990386
 C         -4.9767918068       -4.1684630581        1.6761528643
 C         -3.5353332880       -1.7205751484        1.4751161624
 C         -2.9064284208       -0.4880696580        1.3555472114
 C         -2.3237263022        2.1307910271       -1.1022073102
 C         -1.5855503043        0.9786463328       -1.7924681040
 C         -0.1356575790        0.9064870241       -1.3284658339
 N          0.5240976045       -0.4101420042       -1.5929597474
 C          1.8924064767       -0.5145346354       -1.0440195344
 C          2.9524075108        0.2791036784       -1.7493550952
 C          4.2637262206        0.2176646972       -1.0127555207
 C          5.0476000323        1.3486514550       -0.8599251847
 C          6.2781511453        1.2803758386       -0.2233624061
 C          6.7461689244        0.0765803681        0.2805564063
 O          7.9256629335       -0.1064810095        0.9095053025
 C          8.8100282535        0.9829131213        1.0314014690
 C          5.9426646333       -1.0874261529        0.1392583680
 O          6.4685435996       -2.2159417432        0.6628330881
 C          5.7502643424       -3.4201770988        0.5495302780
 C          4.7216134239       -0.9969662429       -0.5081445757
 C          0.4893963423       -0.7657322490       -3.0232124066
 C         -3.7246626056        2.9212124568        0.8905848145
 C         -4.1502999889        2.6282715584        2.3255246062
 C         -3.1879207762        4.3435267827        0.7863106906
 H         -4.8728055698        0.9094727221       -0.9957982296
 H         -7.1428490282        0.3826776782       -1.3139469685
 H         -7.6437074398       -1.0373212975       -2.2621644539
 H         -6.0983521965       -0.2349681976       -2.6286498850
 H         -5.0562335906       -3.7946925729        2.7014098250
 H         -5.6866287174       -4.9806880513        1.5325256490
 H         -3.9623022260       -4.5399376008        1.4998457530
 H         -3.1519943493       -2.4354792981        2.1846893193
 H         -2.0477196194       -0.2724903852        1.9757622216
 H         -3.2384822352        2.3412119250       -1.6546255759
 H         -1.7015438695        3.0253612221       -1.1386897674
 H         -2.0980684226        0.0413319482       -1.5618583049
 H         -1.6310503738        1.1395040083       -2.8705143361
 H         -0.1158352437        1.0698401043       -0.2407671375
 H          0.4601905513        1.6848117843       -1.8081370388
 H         -0.0201422652       -1.1116870399       -1.0887659199
 H          1.8740520694       -0.3939638248        0.0325019544
 H          2.6815292086        1.3402197036       -1.8773302931
 H          3.1191608158       -0.1239652361       -2.7559903749
 H          4.7104469983        2.2992634433       -1.2455675301
 H          6.8675067985        2.1775300267       -0.1274821074
 H          8.3771033344        1.7868154153        1.6348188159
 H          9.0971819693        1.3763574757        0.0514366174
 H          9.6911275181        0.5895281116        1.5346395984
 H          6.3657911539       -4.1746978021        1.0356876735
 H          4.7821689570       -3.3591416237        1.0570722184
 H          5.5958309187       -3.6981124754       -0.4978244137
 H          4.1003168672       -1.8683712096       -0.6358388214
 H          0.8959831065        0.0498142921       -3.6172496416
 H         -0.5292048045       -0.9682588300       -3.3451753423
 H          1.0975663745       -1.6542722924       -3.1812725495
 H         -4.6055738591        2.8334329004        0.2466658655
 H         -3.3060651890        2.7270693125        3.0026883615
 H         -4.5586334733        1.6248836247        2.4184417352
 H         -4.9145040925        3.3377698215        2.6316024669
 H         -2.2717918345        4.4510536585        1.3611671808
 H         -2.9985041384        4.6338215312       -0.2434234664
 H         -3.9228341031        5.0319472853        1.1954444065
 H         -0.0880974914        2.4383088609        2.4574662923
