  25
        -42.03459336
 C          3.3148579584        0.8264058874        0.0438565909
 N          2.3408060994       -0.2282912877        0.0188410413
 C          2.5584259444       -1.5394220237       -0.0029793664
 N          1.3807229064       -2.2085287632       -0.0135439099
 C          0.3792325938       -1.2916485604        0.0045746447
 C          0.9784452273       -0.0185484980        0.0252867078
 C          0.2357168992        1.1466606289        0.0260557005
 O         -0.4422938564        4.4081286061       -0.1000595934
 N         -1.1115767383        0.9830936245        0.0178176179
 C         -1.8988333179        2.0478580521        0.0054969952
 C         -1.7798911702       -0.3175922637        0.0192612351
 O         -2.9744880860       -0.3884868982        0.0329120220
 N         -0.9630123772       -1.4393675664       -0.0000087995
 C         -1.5798497806       -2.7548120127       -0.0314789917
 H          3.6693479061        0.9947277375        1.0619616514
 H          4.1636212517        0.5752254726       -0.5891895274
 H          2.8379819859        1.7391551608       -0.3096130327
 H          3.5215702531       -2.0099949495       -0.0127617666
 H         -0.8346385442        5.2557026088       -0.3175445949
 H         -2.9665631743        1.9091157210       -0.0051643982
 H         -1.4034530017        3.0380830093       -0.0062536363
 H         -1.2528402130       -3.3456488807        0.8239374713
 H         -1.3278763202       -3.2673524921       -0.9605911344
 H         -2.6592326728       -2.6219081428        0.0189730856
 H          1.2894037530       -3.2151479905       -0.0323113386
