25
 energy: 0.000000000000 xtb: 6.6.1 (8d0f1dd)
C            3.23720163006194        1.16630919979326        0.08434469647475
N            2.29877817382611        0.07527477071623        0.03981603040599
C            2.58028210190900       -1.21425402444508        0.03006176031096
N            1.43813958087363       -1.93419271955128        0.00098261760884
C            0.39035688448383       -1.05887472636071       -0.00790371836672
C            0.93510056364412        0.21347819449412        0.01709077491437
C            0.09450143893243        1.40504303904423       -0.00410947031874
O            0.49712751527797        2.54126714362870       -0.00342325688240
N           -1.25076640035757        1.06271879480407       -0.03085478223738
C           -2.21907211982101        2.15522099834493       -0.05001256985998
C           -1.81739487048744       -0.20012725993278       -0.04692818574614
O           -2.99983886758376       -0.37846417018721       -0.07008878229737
N           -0.92618586207120       -1.30210215599479       -0.03682761578324
C           -1.46982264913417       -2.64643102187190       -0.06029820460571
H            3.71247264356769        1.21471455160235        1.06488849150277
H            4.00791497605742        1.03430808813993       -0.67357694370751
H            2.69910007168542        2.09770118228144       -0.09130154882931
H            3.56654120610678       -1.63682992603973        0.04233140067262
H           -1.67107961066214        3.09322851271934       -0.02552706933167
H           -2.82428953597071        2.09428624779827       -0.95318082946668
H           -2.87644029173232        2.07745725625962        0.81450067533302
H           -1.17061996399332       -3.19584890659852        0.83242232437030
H           -1.14560257411436       -3.17511610292205       -0.95688275822323
H           -2.55549792440841       -2.55659984320617       -0.07459039797972
H            1.38130855184625       -2.94313852034425       -0.01389874181052
25
 energy: -2.971793254050 xtb: 6.6.1 (8d0f1dd)
C            3.24924308393866        1.17874772518351        0.08002365664939
N            2.30656172217191        0.09936758293028        0.03630951664959
C            2.60245392253922       -1.22514461795907        0.02927045364184
N            1.43067225123421       -1.93643645389866        0.00704066546150
C            0.38328102528612       -1.05860264520069       -0.00326410600505
C            0.92495745394145        0.21725242442948        0.01687365603654
C            0.09373591232469        1.38351944940045       -0.00207583562587
O            0.50582499711982        2.54601645444235        0.00067260356491
N           -1.28042617886134        1.03973521083966       -0.03878370740128
C           -2.20408505025750        2.16584110600273       -0.03073616225460
C           -1.89818581524872       -0.21247198250306       -0.10626711652544
O           -3.10623238703136       -0.36677396081224       -0.13937891408470
N           -0.96130435272461       -1.30412334483574       -0.04208463257608
C           -1.45903472806063       -2.66046201378414       -0.04684471185798
H            3.72844535472487        1.22937540811558        1.06174728551415
H            4.02152446542308        1.03719033823939       -0.67858350693127
H            2.71103671370145        2.10642991042525       -0.10243393905539
H            3.58646115248822       -1.64266564519152        0.03505883185788
H           -1.63616577857024        3.09565198436637        0.00994859941579
H           -2.80445773468028        2.13028605882622       -0.93714100346982
H           -2.85723229455017        2.08680451247234        0.83628206551471
H           -1.16718166397204       -3.19208998339495        0.86223981419941
H           -1.09626052143518       -3.20445163886077       -0.92256197187275
H           -2.54233229826227       -2.58273935837457       -0.08940237486147
H            1.38091541669687       -2.94122791868619       -0.00887526983675
25
 energy: 5.261197688319 xtb: 6.6.1 (8d0f1dd)
C            3.26189295525892        1.18741121467566        0.07066277128015
N            2.30613624357947        0.12243196513959        0.02974271830729
C            2.61315162733432       -1.23006824788854        0.02878385628997
N            1.41638007174537       -1.93103711541826        0.01512983255606
C            0.36638510113034       -1.05763272496346        0.00386123832537
C            0.90851466108095        0.21898488299307        0.01742054893358
C            0.08597251402503        1.35142530154171       -0.00109821619555
O            0.49905572594810        2.52853823545510        0.00387324001190
N           -1.32239896138288        1.01084984444359       -0.04914216984246
C           -2.18135066202690        2.18792364616732        0.00146658532092
C           -2.00463611135986       -0.22929012702260       -0.18722356170426
O           -3.22256433088382       -0.34995613881525       -0.27222405558942
N           -1.00673267022291       -1.30354612995244       -0.05058141926794
C           -1.43783579305929       -2.68225231929759       -0.02598581900216
H            3.74767756011237        1.24776794987714        1.05188231933388
H            4.03958919097316        1.03501961082118       -0.68455671571023
H            2.73476169336593        2.11844573165312       -0.12233768911561
H            3.59805468072396       -1.63750099648387        0.02379401043035
H           -1.57742317038963        3.09900036883842        0.07191686697160
H           -2.78040396450715        2.20741337613510       -0.90659468023611
H           -2.82676228972172        2.11033416490799        0.87405589286437
H           -1.16513420071163       -3.17838272876467        0.91479251027717
H           -1.00910497290717       -3.25899114304141       -0.85980840268065
H           -2.52030655469246       -2.64266926726467       -0.12031381712838
H            1.38929632452375       -2.93519075156428       -0.00048194828253
25
 energy: 15.124083252126 xtb: 6.6.1 (8d0f1dd)
C            3.26757945811149        1.18771059908986        0.06221742762060
N            2.29828385801016        0.13227133909977        0.02422530309387
C            2.60648447591188       -1.22925922976048        0.03169360055179
N            1.40373398323696       -1.92636558356148        0.01868419374900
C            0.34848905295029       -1.05964098231745        0.00015913485145
C            0.89458208955203        0.21695167685937        0.01241780960223
C            0.07051653548917        1.33614997622750       -0.01130547045276
O            0.47994851482413        2.51526630813025        0.00097185763763
N           -1.35944363942679        0.99537190994481       -0.06376099300454
C           -2.16530156854627        2.21144002984712        0.03459436743595
C           -2.08156864412487       -0.23962241460431       -0.25592103103553
O           -3.29494780744843       -0.33818605428661       -0.39077204447645
N           -1.03963191421997       -1.30434552779473       -0.06804420832013
C           -1.41489150367721       -2.70337769743579       -0.00698443172658
H            3.75430688587541        1.25780060767114        1.04379135313601
H            4.05182059447163        1.02196539415951       -0.68557911375111
H            2.75888827687634        2.12702374848691       -0.14405623341219
H            3.59564403965744       -1.62734567350745        0.01870007692269
H           -1.52083006021293        3.09687854439035        0.13551600765103
H           -2.76434101114759        2.29778273005037       -0.87193075052705
H           -2.80087860653335        2.13687534214770        0.91427095940111
H           -1.16736757616399       -3.15382975279934        0.96953325728959
H           -0.91653335618300       -3.31022931103991       -0.79089680984631
H           -2.49521548743857       -2.71980171162359       -0.15954493641975
H            1.40288807809230       -2.93245566520163        0.00905457017675
25
 energy: 19.084444342766 xtb: 6.6.1 (8d0f1dd)
C            3.26623446628784        1.18291687146879        0.05942267178062
N            2.28877291528644        0.13205730221481        0.02118919180481
C            2.59318990879772       -1.22533092109716        0.03708079678167
N            1.39677002607910       -1.92453798964357        0.01560507372655
C            0.33667297097719       -1.06255971382607       -0.01340714645153
C            0.88629228695472        0.21364824379623        0.00218039788892
C            0.05851702162656        1.33553055921758       -0.02944546284399
O            0.46822130932638        2.50843460177841       -0.01251504570187
N           -1.38050489190008        0.99427812629047       -0.07627864189565
C           -2.15946928522252        2.22497043800427        0.05643854031230
C           -2.11554832643587       -0.24099937121903       -0.28744703075767
O           -3.31822891136843       -0.33086732602896       -0.44689469158189
N           -1.05349579843238       -1.30678058713656       -0.08726918740357
C           -1.39781978285604       -2.71492570432699        0.00279133028270
H            3.74624240743046        1.25860826521745        1.04381761594912
H            4.05661232920796        1.00431866057133       -0.67931891334804
H            2.77296758538997        2.12835008637071       -0.15972885076792
H            3.58639100958968       -1.61737329902306        0.02174877200209
H           -1.49142165944070        3.09053501451379        0.17454427149295
H           -2.75705738041652        2.35969404052419       -0.84395421928813
H           -2.78723532493839        2.15186552596493        0.94130866531718
H           -1.17297412432037       -3.13160715374078        1.00057810535045
H           -0.85627632406203       -3.33219374951926       -0.74281051099229
H           -2.46997561308577       -2.77693151958958       -0.18717567805636
H            1.41533785346135       -2.93207179861002        0.01657384254692
25
 energy: 18.646382684778 xtb: 6.6.1 (8d0f1dd)
C            3.26153059602022        1.17763261430690        0.05913110581993
N            2.28100681063588        0.12817281887914        0.01943455540554
C            2.58105120180186       -1.22060892341507        0.04235230312043
N            1.39381156559633       -1.92424884080482        0.01066177737478
C            0.33068725499679       -1.06450786221477       -0.02564770357869
C            0.88203153243132        0.21118372320843       -0.00701212034594
C            0.05410356208420        1.33947646218161       -0.04376112603391
O            0.46731314764109        2.50513438409097       -0.02892944559315
N           -1.38644128981789        0.99941166935933       -0.08193060308420
C           -2.15919575882652        2.22808033117494        0.06710368741424
C           -2.11996436374695       -0.23718187627870       -0.28958784463335
O           -3.31370017205894       -0.32610727751205       -0.46443992381726
N           -1.05422281498547       -1.30977944720788       -0.10054455809934
C           -1.38929905316032       -2.71768661229064        0.00540668700702
H            3.73236506994299        1.25605365039554        1.04716421047918
H            4.05642481842204        0.98966946309695       -0.67164143205162
H            2.77682412093479        2.12496743549615       -0.16965360707973
H            3.57671509251150       -1.61011571704274        0.02443790504643
H           -1.48420957981276        3.08313512219057        0.19276512293919
H           -2.75440576573790        2.38864293523948       -0.82600792875812
H           -2.78421728897400        2.15318147686431        0.95351600264480
H           -1.18346166471764       -3.11488420235042        1.01208036683430
H           -0.82482773677507       -3.33234715415128       -0.71486341266394
H           -2.45087338277007       -2.80635468391984       -0.20453039552017
H            1.42316876630080       -2.93189088712419        0.02153027332091
25
 energy: 17.468520852324 xtb: 6.6.1 (8d0f1dd)
C            3.25813111850000        1.17541822403255        0.05827711284772
N            2.27780252341178        0.12606337001939        0.01798255920711
C            2.57609512138839       -1.21839230680291        0.04605719942907
N            1.39258083395501       -1.92457518262832        0.00820765101771
C            0.32881727418462       -1.06463686622464       -0.03035522626330
C            0.88022904093927        0.21082797282502       -0.01174072721648
C            0.05463421381714        1.34134511319253       -0.04870980062725
O            0.46979112255247        2.50549636386589       -0.03714306197023
N           -1.38456455438034        1.00247229156485       -0.08311724214862
C           -2.15964956394276        2.22664831937645        0.07130982582126
C           -2.11404062251697       -0.23341319532798       -0.28634762023146
O           -3.30535121176259       -0.32409185383448       -0.46648576117803
N           -1.05116360476496       -1.31156442243563       -0.10738681139477
C           -1.38805441939513       -2.71688260289056        0.00574764298320
H            3.72326132896589        1.25523206206310        1.04859099407153
H            4.05511582724710        0.98315109455850       -0.66821021251723
H            2.77487163330466        2.12156211081237       -0.17523353224980
H            3.57202965635342       -1.60829663620478        0.02193290156188
H           -1.48417197145565        3.07933467495495        0.20287457642078
H           -2.75377683321133        2.39732124235577       -0.81896963800352
H           -2.78665536052466        2.14682695211223        0.95617191482803
H           -1.19806186347378       -3.10256840612363        1.01953804951373
H           -0.80621712082104       -3.33192032653144       -0.69798694559961
H           -2.44387864973845       -2.81483783937809       -0.22158713827915
H            1.42444074930418       -2.93149155117925        0.02361718612477
25
 energy: 16.513906488141 xtb: 6.6.1 (8d0f1dd)
C            3.25638926816518        1.17501811774533        0.05719572920837
N            2.27698159186580        0.12532395855995        0.01675101104240
C            2.57492894058751       -1.21769705757088        0.05057275487287
N            1.39198874875583       -1.92485957383966        0.00735763151693
C            0.32843708515080       -1.06413579857791       -0.03247155837920
C            0.87948774524933        0.21131141656146       -0.01490581521740
C            0.05562593904257        1.34168581569522       -0.05065326682233
O            0.47080716692199        2.50692809793356       -0.04097001124155
N           -1.38191288736691        1.00344390762088       -0.08364224639078
C           -2.15971826121888        2.22496279385325        0.07425321810280
C           -2.10775777805446       -0.23052104370241       -0.28578124964476
O           -3.29916100021966       -0.32386223309344       -0.46558649948740
N           -1.04809949896632       -1.31268315820788       -0.11314019071325
C           -1.38870945695801       -2.71592214596004        0.00618000643587
H            3.71798176100407        1.25668465807247        1.04890552406748
H            4.05496239267160        0.98046355325084       -0.66633530361765
H            2.77261112127675        2.11962347649130       -0.17967466883127
H            3.57020404161827       -1.60901707718495        0.01655996626295
H           -1.48478518827653        3.07752322957614        0.21174170355701
H           -2.75238452987370        2.40064328738061       -0.81577966510489
H           -2.79029733852792        2.13939784957631        0.95637436513212
H           -1.21399224730177       -3.09437207011233        1.02477827985899
H           -0.79533369209850       -3.33302413996576       -0.68340088274851
H           -2.43957486252280       -2.81669400426983       -0.23683978743680
H            1.42353560701202       -2.93119325766036        0.02554485172535
25
 energy: 15.944755390360 xtb: 6.6.1 (8d0f1dd)
C            3.25621923207976        1.17558315413347        0.05617704292556
N            2.27774680658158        0.12532729256761        0.01598321242590
C            2.57605244987152       -1.21813847149487        0.05628493838376
N            1.39185595578558       -1.92495618451640        0.00745878234789
C            0.32888529764053       -1.06354285131926       -0.03295841263582
C            0.87976889408872        0.21194708589407       -0.01665509158167
C            0.05628559230135        1.34120767161572       -0.05097346830419
O            0.47033245127014        2.50815150845558       -0.04180031985019
N           -1.38015039242566        1.00311755811218       -0.08330157666897
C           -2.15970391110407        2.22370936797761        0.07643380148817
C           -2.10362256576361       -0.22839880653473       -0.28641838068186
O           -3.29624791010090       -0.32456494901429       -0.46339118343030
N           -1.04608411269878       -1.31305630413720       -0.11780259602967
C           -1.39034753541224       -2.71503492726428        0.00619661593766
H            3.71628928419504        1.25937822965214        1.04841574560758
H            4.05590061935912        0.98025070671129       -0.66569359922994
H            2.77140156620812        2.11905184082858       -0.18289050647475
H            3.57019942315473       -1.61106487275996        0.00837324890361
H           -1.48582793751010        3.07671065251246        0.21839005806427
H           -2.75028150299537        2.40082621362067       -0.81477060999336
H           -2.79365819308847        2.13351127790537        0.95577640762710
H           -1.22969140717043       -3.08782079129481        1.02874944911273
H           -0.78753411718722       -3.33573370237196       -0.67059806687398
H           -2.43738434865168       -2.81634841034835       -0.25129802897983
H            1.42181102950860       -2.93108368675873        0.02734643405761
25
 energy: 15.772304893588 xtb: 6.6.1 (8d0f1dd)
C            3.25690430293990        1.17638431040710        0.05580421636368
N            2.27899952284303        0.12559228878877        0.01609733567989
C            2.57790442048677       -1.21891931147901        0.06200924841163
N            1.39229592193796       -1.92490485637186        0.00808554417496
C            0.32979748468774       -1.06338306289207       -0.03264358157804
C            0.88071765755204        0.21215640080974       -0.01684594408303
C            0.05639925559220        1.34056443576198       -0.05038720971597
O            0.46912806203813        2.50838778111809       -0.04062423145042
N           -1.37978020726497        1.00219671546720       -0.08242235613057
C           -2.15982377030108        2.22314267166487        0.07692563117988
C           -2.10242174879727       -0.22763919726751       -0.28668025938163
O           -3.29612641144392       -0.32574916658462       -0.46076404601075
N           -1.04528700419083       -1.31296334250346       -0.11996178881507
C           -1.39179156575320       -2.71453346078506        0.00572724575967
H            3.71732214975093        1.26152404042921        1.04779128822263
H            4.05686995657255        0.98146794969643       -0.66599044471773
H            2.77132314330405        2.11946862960751       -0.18383967997812
H            3.57104013923826       -1.61261866933682       -0.00001139237884
H           -1.48658272968123        3.07638060899596        0.22052028466511
H           -2.74883748096955        2.39933869588778       -0.81579025356252
H           -2.79543311839964        2.13147552476589        0.95476317789018
H           -1.23915651421915       -3.08491687552274        1.02964409494491
H           -0.78534539742910       -3.33733390677113       -0.66410214796104
H           -2.43658547837767       -2.81492466716252       -0.25901641164120
H            1.42068407782031       -2.93116493455186        0.02874557625977
25
 energy: 15.798236061214 xtb: 6.6.1 (8d0f1dd)
C            3.25765042510412        1.17698455721833        0.05580991685554
N            2.27999298460358        0.12583704170398        0.01682371430293
C            2.57952434955058       -1.21963649337107        0.06919860687430
N            1.39285628226710       -1.92482760488930        0.00879229500899
C            0.33067578631557       -1.06353946848158       -0.03239636539139
C            0.88174799678620        0.21201163877082       -0.01644064428295
C            0.05634386345472        1.34001714908009       -0.04959665833859
O            0.46808420671438        2.50795855452253       -0.03881529253617
N           -1.38014921204914        1.00129485943274       -0.08127179839651
C           -2.15999587382457        2.22309239635268        0.07673434294516
C           -2.10287740274470       -0.22740056398183       -0.28646518551834
O           -3.29723981463330       -0.32678451429043       -0.45828177734584
N           -1.04512556106471       -1.31265772081066       -0.12096763132543
C           -1.39279992286595       -2.71431576265027        0.00506852929978
H            3.71925171532595        1.26277775857950        1.04719669580225
H            4.05735960999620        0.98273817092945       -0.66674881948055
H            2.77166726603341        2.12007811696888       -0.18362178534190
H            3.57167819475153       -1.61331663358017       -0.01040990033702
H           -1.48703947963462        3.07629645889085        0.22043262636386
H           -2.74789662886812        2.39766949490819       -0.81727138689315
H           -2.79622754239598        2.13177713020642        0.95393124596661
H           -1.24598548235897       -3.08267563033345        1.03029733379919
H           -0.78300529807133       -3.33875401198393       -0.65981395965247
H           -2.43636095482182       -2.81428779017721       -0.26518486966296
H            1.42008516036617       -2.93130853084269        0.03003466343201
25
 energy: 15.852425690624 xtb: 6.6.1 (8d0f1dd)
C            3.25828135574540        1.17747688524897        0.05633495828857
N            2.28075317536450        0.12603441115203        0.01855235472723
C            2.58116744895946       -1.22026312489502        0.08142535731306
N            1.39370016802690       -1.92480159624535        0.00984187370553
C            0.33179812854269       -1.06400460889407       -0.03258932602593
C            0.88295835550469        0.21154518739764       -0.01570450006895
C            0.05632590116277        1.33955592417385       -0.04853244504895
O            0.46719019927007        2.50707522634933       -0.03627108569445
N           -1.38069746344760        1.00037785652064       -0.07982977139830
C           -2.16023755031577        2.22327879050529        0.07558691293951
C           -2.10382735913637       -0.22752654280528       -0.28546845179392
O           -3.29860320012982       -0.32801851729505       -0.45523421939210
N           -1.04488920168803       -1.31229245045967       -0.12120027930823
C           -1.39355545638561       -2.71426107822497        0.00418586833972
H            3.72193085957775        1.26337715731213        1.04672386599749
H            4.05714017634146        0.98407591035907       -0.66783596664379
H            2.77198720034738        2.12077348836669       -0.18223346030937
H            3.57183660123920       -1.61303684273014       -0.02680307676452
H           -1.48744887071640        3.07649548161008        0.21819103895740
H           -2.74740465499561        2.39520725946056       -0.81970063235228
H           -2.79656017073293        2.13373392628888        0.95268876968993
H           -1.25148161808614       -3.08160016863659        1.02977898920240
H           -0.78202622893542       -3.33917941450833       -0.65711281807993
H           -2.43589549015891       -2.81347618119232       -0.26970476024351
H            1.41977236258262       -2.93151837668652        0.03194470011074
25
 energy: 15.921026557892 xtb: 6.6.1 (8d0f1dd)
C            3.25847080546510        1.17753273966627        0.05740898913220
N            2.28082465899856        0.12604773198189        0.02146623251693
C            2.58239381623360       -1.22067188170603        0.10120033339334
N            1.39440400830550       -1.92489939855806        0.01120608678889
C            0.33278570725219       -1.06466812505570       -0.03384906056545
C            0.88400133681846        0.21075960873083       -0.01522899429604
C            0.05644048207513        1.33931790922364       -0.04765612913054
O            0.46687178730486        2.50587086411556       -0.03353872231823
N           -1.38122034883628        0.99984339296615       -0.07850897349069
C           -2.16040584896135        2.22383321274058        0.07396578337805
C           -2.10519063504467       -0.22785274810173       -0.28424211275733
O           -3.29995600916317       -0.32887480963041       -0.45251316708854
N           -1.04457998997363       -1.31184656604982       -0.12094016771160
C           -1.39368576299026       -2.71442257723144        0.00326202945059
H            3.72483345991046        1.26290406820282        1.04647788099309
H            4.05585205209877        0.98465829984003       -0.66905725495385
H            2.77213330968734        2.12119921299779       -0.17987500367577
H            3.57034953278761       -1.61116657186971       -0.05159078293596
H           -1.48775987657486        3.07723554037916        0.21436838664456
H           -2.74760532463748        2.39264559789889       -0.82211955218424
H           -2.79608381307939        2.13704291458400        0.95171165361555
H           -1.25554114787539       -3.08057494063583        1.02969917146442
H           -0.77940762244077       -3.33953622165902       -0.65520885396435
H           -2.43532485694026       -2.81360218426987       -0.27421112550067
H            1.41961494751621       -2.93174646638815        0.03480724934297
25
 energy: 15.875533869494 xtb: 6.6.1 (8d0f1dd)
C            3.25790528422298        1.17700931542453        0.05868962758666
N            2.28000569770635        0.12574004256560        0.02403824020227
C            2.58252708290510       -1.22054284094622        0.11828988208450
N            1.39446368877400       -1.92512753639900        0.01226075446472
C            0.33310144787216       -1.06504589387632       -0.03587880823115
C            0.88427246157620        0.21008920911371       -0.01575239209584
C            0.05661240511887        1.33957268019463       -0.04773548685447
O            0.46739058257980        2.50512044197589       -0.03248642060187
N           -1.38093020774614        1.00026863603667       -0.07860763793022
C           -2.16033706472570        2.22429710975347        0.07243428316239
C           -2.10548506030482       -0.22851532854517       -0.28351783024379
O           -3.29978885172140       -0.32880229160484       -0.45213561901944
N           -1.04402902591032       -1.31161126464614       -0.11975948486693
C           -1.39279827685743       -2.71465531112408        0.00286103361782
H            3.72606490217568        1.26128339125474        1.04687831055984
H            4.05396657732398        0.98397381085448       -0.66941281332877
H            2.77186594578535        2.12102069907006       -0.17752672159160
H            3.56681262593940       -1.60805351715503       -0.07005813333252
H           -1.48790495317122        3.07831074475891        0.21032518680173
H           -2.74898310211593        2.39107971785138       -0.82313620212828
H           -2.79460601731702        2.13959969352855        0.95151851351442
H           -1.25204847766479       -3.08227840255078        1.02823557368654
H           -0.78043475109224       -3.33823309756479       -0.65833419790270
H           -2.43497731506676       -2.81362569815812       -0.27165730478812
H            1.41954906965017       -2.93184570764028        0.03750154338213
25
 energy: 15.733900363788 xtb: 6.6.1 (8d0f1dd)
C            3.25661916940433        1.17591152767919        0.05968491246224
N            2.27832827629841        0.12511459765486        0.02538143309458
C            2.58139739044967       -1.21996461006381        0.12819290546714
N            1.39338545642796       -1.92541559232405        0.01301526064430
C            0.33233052684462       -1.06478987565143       -0.03816517785909
C            0.88355179627623        0.20980672460235       -0.01768336322731
C            0.05663651615117        1.34025596535239       -0.04931628234671
O            0.46859440066457        2.50510480405713       -0.03410239925150
N           -1.37972557314606        1.00178702880171       -0.08059552724341
C           -2.15992852465240        2.22451439195781        0.07215694987347
C           -2.10449443415404       -0.22918592849355       -0.28431595452541
O           -3.29803179346857       -0.32741267959936       -0.45518055499203
N           -1.04349491567622       -1.31156578368763       -0.11859424467257
C           -1.39098350160621       -2.71480618926546        0.00316026094953
H            3.72471910210462        1.25908353816997        1.04786489794123
H            4.05217728380082        0.98170141176838       -0.66847469615016
H            2.77133501419301        2.12011034498026       -0.17644508143105
H            3.56176224192744       -1.60463193888029       -0.07744454057387
H           -1.48781339039784        3.07937089756100        0.20848374477186
H           -2.75116539517124        2.39179439859328       -0.82140017323285
H           -2.79231828205421        2.13973561846373        0.95286421222447
H           -1.24221835894850       -3.08484189595084        1.02736475901859
H           -0.78235543591372       -3.33671203502477       -0.66481353529783
H           -2.43533743821396       -2.81420596420120       -0.26444866825953
H            1.41924453679640       -2.93173015432781        0.03984475876328
25
 energy: 15.502089774756 xtb: 6.6.1 (8d0f1dd)
C            3.25593723824469        1.17554955458489        0.05996989625204
N            2.27761788380559        0.12480997354179        0.02598666532913
C            2.58101038684216       -1.21982098038205        0.13330866117690
N            1.39235211177907       -1.92551754217459        0.01444307560182
C            0.33178138750546       -1.06417504377179       -0.03874670008892
C            0.88316643768066        0.21001222393365       -0.01920205722810
C            0.05637627756209        1.34047150966674       -0.05085394991752
O            0.46875884713452        2.50555051420117       -0.03620276682777
N           -1.37842748099581        1.00265595386772       -0.08237143914822
C           -2.15962271052164        2.22409015265215        0.07293141083167
C           -2.10258395106627       -0.22915997192263       -0.28573647180814
O           -3.29613935373125       -0.32669007777463       -0.45759163802558
N           -1.04285271321846       -1.31163052953154       -0.11940527598743
C           -1.39038001123402       -2.71449175211428        0.00334902669838
H            3.72292320975541        1.25937471178480        1.04859404181148
H            4.05207117573873        0.98016110266341       -0.66703854489550
H            2.77095109388101        2.11947259356385       -0.17745409334820
H            3.55999403782033       -1.60411461066338       -0.08213946369998
H           -1.48795367058876        3.07940853306719        0.21022711324004
H           -2.75175377507793        2.39296976285306       -0.81960090820564
H           -2.79178988334490        2.13702750428086        0.95366468529812
H           -1.23872808316673       -3.08513025850599        1.02715244667351
H           -0.78353619963431       -3.33627633195449       -0.66658914067289
H           -2.43529697885839       -2.81393794420550       -0.26175388808558
H            1.41833939162499       -2.93158044548855        0.04209321117371
25
 energy: 15.285804584834 xtb: 6.6.1 (8d0f1dd)
C            3.25563035998911        1.17559491429763        0.05983514497946
N            2.27741944543208        0.12471619370937        0.02565757360898
C            2.58094666667595       -1.21996307081191        0.13321431421545
N            1.39095347468388       -1.92546168650014        0.01632992136684
C            0.33112104060840       -1.06311486784711       -0.03833443192309
C            0.88302021970530        0.21052136888484       -0.02102265492798
C            0.05553458097627        1.34036710548067       -0.05328063416567
O            0.46835480306460        2.50604670597576       -0.03972805425426
N           -1.37702708422387        1.00337439547604       -0.08478980330548
C           -2.15924216471373        2.22333866337169        0.07483095817174
C           -2.10047185926797       -0.22916660909924       -0.28827920020792
O           -3.29435291154324       -0.32601304106286       -0.46043421644362
N           -1.04260225053607       -1.31160203679240       -0.12147890653914
C           -1.39015537372527       -2.71386541956767        0.00341882793708
H            3.72026428565630        1.26136307823543        1.04945261118454
H            4.05341011264029        0.97871210342643       -0.66468742075346
H            2.77100397994674        2.11898485291781       -0.18027646956091
H            3.55923500500629       -1.60529675617965       -0.08067229439735
H           -1.48804837174284        3.07873364963914        0.21478146309676
H           -2.75154376093412        2.39536322901383       -0.81677809004779
H           -2.79171729956609        2.13217011513588        0.95489971414578
H           -1.23533130568385       -3.08445049757752        1.02702060227644
H           -0.78534754015085       -3.33667978772811       -0.66809424221467
H           -2.43589920281475       -2.81326074853559       -0.25891379264686
H            1.41705981845370       -2.93138325169046        0.04436297655246
25
 energy: 15.294107234994 xtb: 6.6.1 (8d0f1dd)
C            3.25583849778974        1.17587722241257        0.06000261867135
N            2.27770583617777        0.12485964307135        0.02620743953355
C            2.58154234983705       -1.22023074535184        0.13748673005757
N            1.39111379708011       -1.92544755199110        0.01692393837507
C            0.33150340970118       -1.06317272198924       -0.03826780057013
C            0.88356427416864        0.21034615223674       -0.02087928003760
C            0.05526049669683        1.34014190816041       -0.05333610172053
O            0.46805572587390        2.50559142697829       -0.03952661771908
N           -1.37710074990874        1.00310777742106       -0.08451025034313
C           -2.15927304209688        2.22332661212492        0.07470590061096
C           -2.10075936939094       -0.22936924742718       -0.28805980682786
O           -3.29483841975233       -0.32644634751688       -0.45942208933112
N           -1.04265876753569       -1.31139835156184       -0.12205970407606
C           -1.39043430483398       -2.71375603730418        0.00301667142102
H            3.72071439761317        1.26218884643747        1.04944407160741
H            4.05368205126877        0.97897408918780       -0.66457953977637
H            2.77121868462806        2.11921338789491       -0.18047316391890
H            3.55928804319339       -1.60555624876791       -0.08620097642403
H           -1.48810917292142        3.07851685110404        0.21493489234995
H           -2.75103138718417        2.39508455844997       -0.81733060250772
H           -2.79197811831104        2.13221939072130        0.95451432124620
H           -1.23696797605117       -3.08358386993838        1.02696386096788
H           -0.78501834173197       -3.33702417065212       -0.66735344507844
H           -2.43603090129412       -2.81296813808912       -0.26032294189985
H            1.41692765492010       -2.93146583343915        0.04515577153717
25
 energy: 15.377009561532 xtb: 6.6.1 (8d0f1dd)
C            3.25602409085703        1.17609754374261        0.05992642087611
N            2.27793284446054        0.12502616606925        0.02576858113028
C            2.58172005313408       -1.22026896957149        0.13464368493796
N            1.39146551760534       -1.92542847065271        0.01642899173627
C            0.33174628797318       -1.06336435944725       -0.03797689812940
C            0.88381113793073        0.21020746163220       -0.02042196743700
C            0.05512905669811        1.34001464915717       -0.05302722538929
O            0.46807677912098        2.50523474005850       -0.03925290249799
N           -1.37740670126880        1.00284089393696       -0.08401187778653
C           -2.15930364821523        2.22342300720332        0.07445092219581
C           -2.10139226729537       -0.22970618717389       -0.28746970764578
O           -3.29549690947815       -0.32675851138650       -0.45853281908649
N           -1.04299056312332       -1.31131236272041       -0.12189119644705
C           -1.39060373530350       -2.71381473541548        0.00292160066395
H            3.72092509256449        1.26238652748079        1.04935144183013
H            4.05393400903208        0.97945847400089       -0.66470564810027
H            2.77142909686811        2.11948187584151       -0.18046196459136
H            3.55968039137151       -1.60578240269153       -0.08297913621185
H           -1.48797495566673        3.07831144399935        0.21479873193367
H           -2.75051633635972        2.39505436543780       -0.81797012428734
H           -2.79226968301102        2.13283652811639        0.95407666305236
H           -1.23702715818774       -3.08374299277838        1.02660147393082
H           -0.78573726053139       -3.33684438666860       -0.66775534925921
H           -2.43631318853457       -2.81278169324620       -0.25984207118314
H            1.41737271729568       -2.93154000275241        0.04436427191268
