25
 energy: -42.411294847699 xtb: 6.6.1 (8d0f1dd)
C            3.25886055482829        1.16668994777427        0.05099242906793
N            2.28101605181603        0.10013011125345        0.01704072975893
C            2.64360713208801       -1.16793894366006        0.01838758618648
N            1.56416217953944       -1.96235066047414        0.01011563715442
C            0.39529661316692       -1.14636629686525        0.02402770518625
C            0.91305653487890        0.18345275395709        0.01468508550270
C            0.08797445893182        1.40281722482361       -0.00727057417275
O            0.65224731112261        2.50582332838358       -0.02886832514901
N           -1.24179362355874        1.16616162278834       -0.01661566438465
C           -2.08626676167271        2.29864167062738        0.09584119367727
C           -3.07581151534148       -0.30602638918267       -0.87906069914234
O           -4.04051820411072       -0.03173555316551       -0.35415267493844
N           -0.82265860930552       -1.48505351200296        0.03890753702567
C           -1.31042865885451       -2.80858893175559        0.03059339274944
H            3.71758988686962        1.23336911976728        1.03974153061892
H            4.05078012222135        0.96701125910840       -0.67119634138883
H            2.77761186198340        2.12234506916008       -0.16398687048499
H            3.65273761308565       -1.52102179902319       -0.02477030181971
H           -1.46773829938263        3.17571039026098        0.21754509858161
H           -2.69545666974749        2.43355406366964       -0.80236261408534
H           -2.75460441179395        2.17761439126160        0.95521168335923
H           -1.24879617638331       -3.21674159874725        1.04393040845354
H           -0.75597755648386       -3.40374206434162       -0.68631782741580
H           -2.35696949814083       -2.83324541089780       -0.26862944004064
H            1.60474461240691       -2.96299699033607        0.03409811845431
