  25
        -42.13112271
 C          3.6888812782        0.9655575062        0.6368756415
 N          2.5688292188        0.1436044402        0.3752942771
 C          2.5540697660       -0.8149563334       -0.4394651542
 N          1.4196666685       -1.5565529216       -0.6715983340
 C          0.1927515374       -1.3374016342       -0.1391998413
 C         -0.1292677440       -0.0425876328        0.5781648240
 C         -0.1060338368        1.3678731159       -0.0788916820
 O          0.6767509902        2.1460287191       -0.4981340198
 N         -1.5246884568        1.3907737062       -0.0410827100
 C         -2.4965426480        2.3639223970       -0.4528631849
 C         -1.6079306261        0.1437068886        0.4658502984
 O         -2.5319880602       -0.7409270900        0.3896354455
 N         -0.7120780544       -2.2260476623       -0.2579908966
 C         -2.0146900924       -2.1189464466        0.2245434717
 H          3.8665922461        0.9738170617        1.7135192415
 H          4.5982083353        0.6451722006        0.1160569333
 H          3.4339205179        1.9833038084        0.3339071203
 H          3.4193550466       -1.1513491532       -1.0199204231
 H         -1.9690257001        3.1588180280       -0.9768290856
 H         -3.2316826271        1.9028859177       -1.1128814151
 H         -3.0084440804        2.7814125116        0.4151417803
 H         -2.1174954510       -2.6353956438        1.1880353097
 H         -2.7106023432       -2.5690086444       -0.4915992828
 H          0.3492973640       -0.0174555056        1.5577975001
 H          1.5080285229       -2.4155756095       -1.2008922346
