72
 energy: -99.403026247171 gnorm: 0.005314496200 xtb: 6.6.1 (8d0f1dd)
N           -2.11899763495301        2.72229240759412        2.35175452023794
C           -1.97965678036236        2.10721687099358        1.27475385077546
C           -3.07327217910389        1.91563703674675        0.25872125651259
C           -3.67804879722572        0.52432315834096        0.41563793125530
C           -4.69567613899779        0.11567503368421       -0.44926959472881
C           -5.14484203473744       -1.19354569565823       -0.47386994214673
O           -6.11487513211120       -1.66964844427544       -1.27816707918115
C           -6.82449178594083       -0.77982841400582       -2.10772728080490
C           -4.53005853000629       -2.15631880464482        0.37047795682023
O           -4.93253972874029       -3.43156850413627        0.19234006062661
C           -4.18040702502654       -4.46691309866393        0.78168592711198
C           -3.57960426892290       -1.72841000609730        1.28360859713780
C           -3.16416868507733       -0.40435947076882        1.30918883312404
C           -2.41145941994386        1.95642776817195       -1.14672560626267
C           -1.48699512457659        0.76442744149367       -1.44473370645451
C           -0.15519087095053        0.88051390031337       -0.80852646336476
N            0.55186830492931       -0.13309128552330       -0.32029702863724
C            1.95071713545728        0.04284634469466       -0.00886032031312
C            2.84542319862029       -0.36642237265871       -1.19564527714791
C            4.28929107464109       -0.14218265659031       -0.84715207051513
C            4.89330554595223        1.08131917764597       -1.08643014969783
C            6.21452200029712        1.30179320525454       -0.72961463296837
C            6.95814647557855        0.30146861833692       -0.11986281563592
O            8.24116254631975        0.40504402108379        0.27206538098625
C            8.93024203482963        1.61536690612214        0.05755296959788
C            6.34683858836837       -0.95893724990699        0.12797844154025
O            7.13998035707261       -1.87617941590111        0.71614511245027
C            6.63000386663662       -3.16217573463346        0.97571193511485
C            5.02422968116252       -1.15497342247848       -0.23585830511148
C            0.00144114805810       -1.46247887991830       -0.20969487410099
C           -4.16672133861676        3.01977782553450        0.34687068301096
C           -4.98966332117719        2.89211858320849        1.62445226543204
C           -3.59961353562234        4.43160560051850        0.24511483193815
H           -5.14065157068742        0.83231024347832       -1.11914551437269
H           -7.34933132174337       -0.01993145213360       -1.52112666485788
H           -7.55170073376723       -1.39294569313264       -2.63634269745771
H           -6.16846496090758       -0.29384279862460       -2.83642711654876
H           -4.33183752842326       -4.51615930869679        1.86525716231227
H           -4.54373140360155       -5.38581949303145        0.32753746906381
H           -3.11423637420106       -4.35234326700613        0.56572144159346
H           -3.15020984098715       -2.42656014078270        1.98484058577989
H           -2.43210239211493       -0.10586244313239        2.04514368094046
H           -3.20399630392202        1.96443601676872       -1.89408876720559
H           -1.84403368505746        2.88054393603453       -1.25282580194792
H           -1.98433957646464       -0.16474685603998       -1.17181151343751
H           -1.32872889695753        0.74459054152743       -2.53099034125669
H           -1.02327657799314        1.64874370620729        0.94583221195642
H            0.36451376726673        1.82273577853468       -0.90665673200038
H            2.20491941866153       -0.56056174953658        0.86537168212465
H            2.13999912225476        1.09084216599698        0.23268019563437
H            2.57225926239480        0.23503856773589       -2.06437243974002
H            2.67346788079708       -1.41674360576724       -1.43485790384340
H            4.33904944089875        1.87369937954602       -1.56615848033749
H            6.65949047751200        2.26142476829073       -0.93517694701703
H            8.45945002632572        2.44463765381105        0.59434505412040
H            8.99276605858726        1.85727236025535       -1.00758510778361
H            9.93218722195152        1.45400728506687        0.45042692591669
H            7.44952558357975       -3.71534782424901        1.43010758505741
H            5.78777182784103       -3.12658236606887        1.67429556979046
H            6.32131790391687       -3.66511358011513        0.05396430210022
H            4.55269150219875       -2.10889594606014       -0.05833935401150
H           -0.24058337716802       -1.87525960669861       -1.19101926068712
H           -0.90912740524668       -1.44591962996109        0.39391339082946
H            0.72705884421851       -2.11324772219859        0.27122872739105
H           -4.83598942491583        2.87318755701812       -0.50632498507274
H           -4.37751490585100        3.14496886956310        2.48314584881138
H           -5.36122762822319        1.87667789751465        1.74929260500495
H           -5.83606606287376        3.57242624963939        1.58793569393058
H           -2.93842955886905        4.63999809846365        1.08101980965552
H           -3.06175810569691        4.59405859670266       -0.68309377679110
H           -4.41921379355443        5.14416832427427        0.27878244105173
H           -1.31429093800732        2.80343456541656        2.96514045731273
