25
 energy: 10.630298891126 xtb: 6.6.1 (8d0f1dd)
C            3.18260441389928        1.45163377311575        0.08645251449095
N            2.40256471522200        0.07451576214199        0.00287328429875
C            2.64237154501611       -1.33598621299671        0.04267804421418
N            1.43364571821800       -2.04231433602648        0.00983495488372
C            0.42193461912039       -1.15135576485468       -0.01559861057105
C            0.98754120851313        0.12540001927310       -0.00489303913969
C            0.17177358554295        1.28138267269047       -0.01590604642249
O            0.55311361981938        2.45440113217586       -0.02066194475768
N           -1.22093020809392        0.98423794458659       -0.03211676253807
C           -2.12881336523557        2.12112854772981       -0.04652184258800
C           -1.79893942379401       -0.24482058503850       -0.04838015182906
O           -3.00363847580810       -0.39922077915270       -0.06625829510633
N           -0.93988188044097       -1.36274113503320       -0.04096696332576
C           -1.56354304801554       -2.66836163669676       -0.06278213206912
H            3.68512969184628        1.57729626878575        1.05276059051399
H            3.97592646373593        1.48426809199142       -0.67293730937832
H            2.47517586116097        2.29552942035879       -0.04634764775162
H            3.57278340163204       -1.84967418825998        0.04294751232978
H           -1.52849003639485        3.02708658594317       -0.02123144543320
H           -2.73038281970260        2.10698861708567       -0.95338745883761
H           -2.78238210481144        2.08905076186749        0.82298806423897
H           -1.30745454298270       -3.24390298522383        0.82890157805082
H           -1.28099956577241       -3.22575320882583       -0.95820874608261
H           -2.64464540984844       -2.50574018350902       -0.07671577580390
H            1.31266717425901       -3.05169672575874        0.00448913130986
