25
 energy: 30.599216755758 xtb: 6.6.1 (8d0f1dd)
C            3.72734578502831        2.83061887022199        0.12060683190496
N            2.29386775409540       -0.53616904189335        0.02430509977605
C            2.38254971881801       -1.82334137698573        0.02293513438773
N            1.15061973784776       -2.44154127430845       -0.00403135093099
C            0.23768498827432       -1.43589274199878       -0.01970320359361
C            0.95706445504059       -0.25050182655743       -0.00230160843583
C            0.28263999005692        1.02318419055181       -0.01607935668718
O            0.77429461977633        2.12487288884654       -0.01478506164092
N           -1.11899128811450        0.86191930293369       -0.03407236995624
C           -1.92445027934563        2.07575076890318       -0.04033567192619
C           -1.83930878124732       -0.30956386335327       -0.05033102427506
O           -3.04972014197828       -0.32213426244221       -0.06813544610561
N           -1.11672494704382       -1.50276475917848       -0.04595472409303
C           -1.82508585252323       -2.76375200270565       -0.06944191426923
H            3.98406926479602        2.50832693392555        1.10596255592717
H            4.36564787666130        2.58319988024548       -0.69926992161106
H            2.77032050535969        3.26667209756690       -0.05824534087970
H            3.30134210361228       -2.37277058230738        0.03940606364372
H           -1.24502125730751        2.92489651263014       -0.01222123288161
H           -2.53633510897838        2.11144526011580       -0.94100592576743
H           -2.58250670570970        2.08807343196080        0.82768807457309
H           -1.59448662524862       -3.35063704487160        0.82163802206924
H           -1.56623619624501       -3.33278596296929       -0.96441642268981
H           -2.89015930291739       -2.53549260945919       -0.08396872992946
H            0.97379399226476       -3.43258400012717       -0.01120856441449
