25
 energy: 35.184533443970 xtb: 6.6.1 (8d0f1dd)
C            3.37940724045248        2.04478401899960        0.11481914012816
N            2.35891727136693       -0.21874483051306       -0.04675091903285
C            2.52628865611449       -1.50117735183108        0.01363136283440
N            1.34199861625614       -2.20428278230438        0.02514517934886
C            0.36288724848197       -1.25972378830626       -0.01995187356928
C            1.00254411352004       -0.02473852028534       -0.04289057744753
C            0.22068470858986        1.19264529709806       -0.04060809127026
O            0.60679304728764        2.33433592232698       -0.05651932362379
N           -1.16640456055460        0.93369614242686       -0.03638008548410
C           -2.04566243944250        2.10080388915573       -0.04218463805031
C           -1.79487044538661       -0.28141717888521       -0.04904730808673
O           -3.00373088022317       -0.36588107536182       -0.05738489430728
N           -0.98720467569340       -1.42417364866532       -0.04316045921949
C           -1.66212367676555       -2.69777254011208       -0.06571666598873
H            3.70826933380663        1.91024106673481        1.10279469006959
H            4.00858260489779        1.86821476717431       -0.70278571985304
H            2.54115735560012        2.67264012167907       -0.04049649447420
H            3.47447388000263       -2.01179339299998        0.03877907224715
H           -1.41615764610291        2.98461843839167       -0.01513846412483
H           -2.64839426073669        2.11504062002013       -0.94796872226439
H           -2.69449874036540        2.08905848308740        0.83086805799194
H           -1.43227468503909       -3.28330120307169        0.82565400690354
H           -1.40298165313645       -3.26399478021203       -0.96171454613589
H           -2.72929089733439       -2.46368210301706       -0.07981799986950
H            1.23229584517069       -3.20827567952311        0.03828364955386
