25
 energy: 32.583075803500 xtb: 6.6.1 (8d0f1dd)
C            3.55421107326410        2.48856615469258        0.14612140402522
N            2.33275465506489       -0.40592839449902       -0.07612324388003
C            2.44753670657164       -1.68884432705295        0.00266520347692
N            1.23901353687307       -2.34428486035679        0.03105792655032
C            0.29684908807996       -1.36120459282807       -0.01911250875083
C            0.98958485575364       -0.15847892050281       -0.06189335759765
C            0.25580207799262        1.08698338603574       -0.05449417024008
O            0.69512576507741        2.20957022727674       -0.04999666616410
N           -1.12768637031902        0.88096286540533       -0.03653455987186
C           -1.95526244831080        2.08373277583153       -0.03100539655857
C           -1.81536669446974       -0.31037019327757       -0.04756692201572
O           -3.02593191197728       -0.34092850318246       -0.06324029777038
N           -1.05730408066482       -1.47971044594749       -0.03762741911680
C           -1.76938300229675       -2.73526889294254       -0.06792608951453
H            3.84848885988912        2.26562579562480        1.14307724921076
H            4.19203711369208        2.29525130286370       -0.67388261459018
H            2.64891125653242        3.01579621516058       -0.03110998196808
H            3.37183412259183       -2.21408061065632        0.03472357450609
H           -1.28292714857167        2.93651659601603       -0.00599323880221
H           -2.55765152742854        2.13131269335674       -0.93456159203118
H           -2.59555763411249        2.09045844972277        0.84765166647270
H           -1.56983511385933       -3.33252989781932        0.82145476592081
H           -1.53527536963159       -3.31053824177654       -0.96453811451048
H           -2.83039627342009       -2.47080313598421       -0.08475507606995
H            1.09073154262277       -3.34115667306476        0.03213269273433
