25
 energy: 33.366073101159 xtb: 6.6.1 (8d0f1dd)
C            3.49847271003342        2.34194740547696        0.14282663882038
N            2.33124386553038       -0.34518026236370       -0.04773614982968
C            2.46545190471304       -1.62548919658397        0.01090211933718
N            1.27115262352065       -2.30273077159079        0.02820187673700
C            0.31379514953479       -1.33083497199015       -0.02021118288683
C            0.98602652008757       -0.11726428082618       -0.05082450420323
C            0.23234809280181        1.11683673691489       -0.05617708581775
O            0.65947503296151        2.24434494257731       -0.06157664760858
N           -1.14622108326116        0.89661259568038       -0.03978652646051
C           -1.98603940781983        2.09369194511769       -0.03740607826816
C           -1.81050336361347       -0.30249698305803       -0.04807704430901
O           -3.02049939389043       -0.34070004196878       -0.05746244010924
N           -1.03733997372562       -1.46420740094758       -0.04084721720214
C           -1.73667258388283       -2.72304026509306       -0.06805984768110
H            3.80004826823425        2.14582482293556        1.13929007768082
H            4.12529761247552        2.15166190645683       -0.67555452165687
H            2.61158059186675        2.90097873568218       -0.03221564394926
H            3.39805679932763       -2.13779855966316        0.03023100415934
H           -1.32418784798610        2.95337070094622       -0.01240304843121
H           -2.58966016384053        2.13375780067402       -0.94093734725140
H           -2.62810236953694        2.10257274620141        0.84024470951178
H           -1.52651641206908       -3.31491701807196        0.82328529352828
H           -1.49248210812623       -3.29591364834014       -0.96374034286063
H           -2.79769050108612       -2.45715777816629       -0.08523422185305
H            1.14492541610531       -3.30415070405713        0.03733085549672
