25
 energy: -5.045023739898 xtb: 6.6.1 (8d0f1dd)
C            3.21908809881301        1.26668278361425        0.08732903778435
N            2.34329484528752        0.10555727469074        0.02586262602880
C            2.61756302557264       -1.26404326002840        0.03206396328110
N            1.42183902719699       -1.96519053553153        0.00228714425127
C            0.40498061171649       -1.08519766873093       -0.01026302005412
C            0.94299357237473        0.19580895654855        0.00821747864703
C            0.13496469500421        1.35518234853205       -0.00769560124004
O            0.52179591067723        2.52758085582433       -0.00859213298039
N           -1.25319024719343        1.03012161732246       -0.03125725910187
C           -2.19213551053600        2.13909309585461       -0.04847321827387
C           -1.81480595019382       -0.21051541596892       -0.04770539520082
O           -3.01652847315158       -0.38556271575921       -0.07034884275270
N           -0.94180952383677       -1.31676548365553       -0.03768408574883
C           -1.50248513627181       -2.64865325129994       -0.06111872440625
H            3.71246068683955        1.33894768293042        1.06343129383073
H            4.00496638421627        1.18834732663336       -0.67238331942987
H            2.63273063690012        2.17653825114400       -0.07357955329715
H            3.57839782914571       -1.71471737384197        0.04379652623902
H           -1.62257813598910        3.06533823357536       -0.02405399125492
H           -2.79641291062524        2.09683256523818       -0.95359142625687
H           -2.84737714049322        2.07963531267867        0.81921862320294
H           -1.21542935600919       -3.21011640980404        0.83089236735693
H           -1.18906511084224       -3.18953540831804       -0.95713750917633
H           -2.58709986869959       -2.53658405346446       -0.07584584685287
H            1.33842108603759       -2.97011192256928       -0.01044591652412
