25
 energy: 33.787642512492 xtb: 6.6.1 (8d0f1dd)
C            3.47059223276246        2.26911951766739        0.13646018504474
N            2.33655827798088       -0.31385865650652       -0.04633541501042
C            2.47793063991349       -1.59393377413631        0.01152432482236
N            1.28746429978338       -2.27886896969923        0.02617245893286
C            0.32570037955447       -1.31355389754489       -0.02040609359608
C            0.98932450758813       -0.09431349650764       -0.04872798742006
C            0.23018864859205        1.13568393344437       -0.05250018799828
O            0.64781307152781        2.26650019334499       -0.06454133643863
N           -1.15071355189169        0.90600505861957       -0.03941145366948
C           -2.00073107019823        2.09528200615412       -0.03917404468645
C           -1.80541679162780       -0.29715925030240       -0.04814917699568
O           -3.01531117839501       -0.34544410875202       -0.05643154946651
N           -1.02427480736479       -1.45517168211969       -0.04170563693952
C           -1.71836221163578       -2.71668648354168       -0.06826760551382
H            3.76881576771515        2.08962496579294        1.13265088053949
H            4.09442565814389        2.08280189215940       -0.68203268746866
H            2.59487599185645        2.84235655333500       -0.03577553710343
H            3.41431060553353       -2.10468497918250        0.03097873912498
H           -1.34770902867850        2.96145033740982       -0.01299518547614
H           -2.60404049629870        2.12929766482723       -0.94346579794260
H           -2.64428116426618        2.09954679749102        0.83738232047638
H           -1.50267271643479       -3.30719780791731        0.82290161044756
H           -1.46992970536712       -3.28683448158266       -0.96451129270116
H           -2.78024418709886       -2.45499384542397       -0.08452748825600
H            1.16725123858926       -3.28138172110816        0.03476861495870
