25
 energy: 31.742982005319 xtb: 6.6.1 (8d0f1dd)
C            3.60948511414465        2.63372646910282        0.15180191747583
N            2.31940085879239       -0.46858735499203       -0.07249215063715
C            2.42857618897652       -1.75200027840658       -0.00150246704663
N            1.20498274927776       -2.38721883153385        0.02974332152248
C            0.27620247287998       -1.39181917241474       -0.01357016184604
C            0.97885835498798       -0.19640050958913       -0.05447197444798
C            0.27480084814301        1.06773566804138       -0.04825356704092
O            0.73666750402529        2.18105274097720       -0.03858414498835
N           -1.12167826901769        0.87765070782416       -0.03420221629387
C           -1.93531987345295        2.08427204984059       -0.03000629698310
C           -1.82324935548442       -0.30587803195188       -0.04767395898766
O           -3.03436001227231       -0.32599884185977       -0.06520348163719
N           -1.08095328648855       -1.48598189107318       -0.03480371254858
C           -1.79744126587575       -2.74434253980503       -0.06733177614593
H            3.91345354304498        2.36990165762105        1.14188035311178
H            4.24493582012480        2.42180312730739       -0.67573294309705
H            2.68608354579853        3.13657100860818       -0.02779002942529
H            3.36001800052596       -2.27944333964897        0.03586747033887
H           -1.25158850267209        2.92867581064499       -0.00010614052286
H           -2.54286291936794        2.12934107735988       -0.93260412106854
H           -2.58457885750955        2.09279328852138        0.84345910613845
H           -1.59823390571754       -3.34305801833816        0.82132139625834
H           -1.56448691735460       -3.31983789580044       -0.96425383003217
H           -2.85750916520794       -2.49449580292987       -0.08488475488804
H            1.03941570755721       -3.38070620670392        0.02309436359923
