25
 energy: 32.220015961608 xtb: 6.6.1 (8d0f1dd)
C            3.57543210567290        2.56410519218023        0.15288349144514
N            2.32355422225967       -0.43660669250164       -0.07597126258747
C            2.43775152294405       -1.71967447261687        0.00085562095077
N            1.22162423243255       -2.36478713421146        0.03163557909406
C            0.28629985838758       -1.37602089213699       -0.01537342435776
C            0.98235343416020       -0.17622259619209       -0.05794356896145
C            0.26797693541730        1.07950707042187       -0.05113841508241
O            0.71614585485878        2.19828621153833       -0.04149374325708
N           -1.12173308685219        0.87803574437298       -0.03533485194197
C           -1.94279081546297        2.08313764781899       -0.03037638765014
C           -1.81837748184892       -0.30826562425745       -0.04772735076828
O           -3.02925444794289       -0.33512979900229       -0.06467857141858
N           -1.06884541636951       -1.48185427750510       -0.03560075606635
C           -1.78387233143561       -2.73832872975413       -0.06647479097336
H            3.87339415994841        2.32087373358719        1.14558101978135
H            4.21288874726635        2.37961557682090       -0.67130536990461
H            2.66097493183822        3.07533721891595       -0.02781863571320
H            3.36462062177962       -2.24711635720616        0.03550602071731
H           -1.26265099278223        2.92891513259798       -0.00115283306840
H           -2.54436484908689        2.13100796757778       -0.93422543678497
H           -2.58556073821797        2.09085369778416        0.84615936797481
H           -1.58728764941755       -3.33624400560612        0.82287103978404
H           -1.55328444284303       -3.31463588241842       -0.96300164477903
H           -2.84398843302317       -2.48022743891962       -0.08445973219916
H            1.06360473964464       -3.35943221214728        0.02776879539785
