25
 energy: 0.652260866927 xtb: 6.6.1 (8d0f1dd)
C            3.19363260789187        1.35800581149717        0.08824067882711
N            2.38455756672276        0.09508212604697        0.02492348220520
C            2.63550788930990       -1.30005809410474        0.03486796102035
N            1.42686169280147       -2.00124868107710        0.00472107643639
C            0.41462060451485       -1.11515344158467       -0.01117122434269
C            0.96999196792346        0.16189071199118        0.00436075125919
C            0.15361678273729        1.31778503315597       -0.01141010696324
O            0.53804390039717        2.49025911349610       -0.01559162175611
N           -1.23838420256137        1.00602382486360       -0.03232419777174
C           -2.16127344893294        2.12961026677015       -0.04778933757893
C           -1.80969399942457       -0.22887692512303       -0.04833998854764
O           -3.01347100159201       -0.39588991006668       -0.07005305620264
N           -0.94110105450035       -1.33805407381212       -0.03839808516021
C           -1.53272281418694       -2.65760090382576       -0.06157908644028
H            3.70207368485949        1.46027896129066        1.05643501920396
H            3.98983366837268        1.34265621743013       -0.67236329414878
H            2.54552792956233        2.23450095583383       -0.05444812163694
H            3.57882201475912       -1.78630637966433        0.04478900745508
H           -1.57490248125171        3.04477284441328       -0.02386632732417
H           -2.76609162586777        2.10349884577035       -0.95278225568840
H           -2.81451973222407        2.08608802100349        0.82191001855915
H           -1.26199772132493       -3.22656723186322        0.83040690747968
H           -1.23449073577838       -3.20673839268419       -0.95736529269840
H           -2.61607531483523       -2.52018668578196       -0.07649871169305
H            1.31163100899769       -3.00659145252862       -0.00699783941888
