25
 energy: 36.179447275996 xtb: 6.6.1 (8d0f1dd)
C            3.33242708413954        1.89528670083477        0.10729782971687
N            2.36927602287006       -0.15773520185962       -0.05349331761115
C            2.56143287348217       -1.44614143100999        0.01544786319378
N            1.37673272125246       -2.15506068920986        0.02747935050363
C            0.38447623350537       -1.22503517629737       -0.01554601461203
C            1.00569758755086        0.01951433525458       -0.03138500132943
C            0.20506896294435        1.22585905892789       -0.03001657158784
O            0.57659190359864        2.37547248327232       -0.04010980209630
N           -1.18369079577844        0.95151101429485       -0.03373524536522
C           -2.07712385913053        2.10791216481230       -0.04417390923890
C           -1.79442612983425       -0.27043395881756       -0.04814314350342
O           -3.00129367307047       -0.37974294471875       -0.06114445610264
N           -0.96713675666161       -1.40370854345085       -0.04116856677881
C           -1.62448087613527       -2.68799018286902       -0.06381428698800
H            3.70173667893640        1.79491705782843        1.08953202184595
H            4.00309774886542        1.72901807770569       -0.69378161285512
H            2.50123648997054        2.54513029430475       -0.04189028037401
H            3.51540814539308       -1.95326977013955        0.04518302985017
H           -1.46169766515782        3.00228860112835       -0.01878745681785
H           -2.68050566373061        2.11116107015249       -0.94986824217842
H           -2.72837122952132        2.09016858112790        0.82720823092861
H           -1.38371368346561       -3.26849277810573        0.82787306558152
H           -1.35457087306866       -3.25000168339374       -0.95948116072890
H           -2.69729651921361       -2.48212757348031       -0.07879513908220
H            1.26690826435796       -3.15864281356732        0.03485341435569
