25
 energy: 31.285189932606 xtb: 6.6.1 (8d0f1dd)
C            3.64584683995541        2.70261959218052        0.14725458794663
N            2.31638705996373       -0.49991216670888       -0.06154781400884
C            2.41312060730426       -1.78374475122038       -0.00079308936641
N            1.18570022960283       -2.41029943115931        0.02591331603024
C            0.26534268218789       -1.40746850160176       -0.01218940661418
C            0.97665210344616       -0.21880410250045       -0.04897719004220
C            0.28045917081462        1.04974514151328       -0.04490646508908
O            0.75582216383113        2.15823525679334       -0.03750500811684
N           -1.12023051677913        0.87302244953638       -0.03454054013233
C           -1.93486015907796        2.08366435313399       -0.03347921056197
C           -1.82857866019351       -0.30777834705498       -0.04748845944444
O           -3.03962786348761       -0.32009478015067       -0.06670485872875
N           -1.09163084945371       -1.49055361686348       -0.03334070925070
C           -1.80035899154882       -2.74902600063853       -0.06610842758445
H            3.93779150116243        2.43665737600886        1.14065201421833
H            4.28389791000960        2.46706609010822       -0.67815668083121
H            2.71429704861547        3.19085732292445       -0.03446243981980
H            3.34285685187848       -2.31388572822370        0.02916219764100
H           -1.24677049791092        2.92574181506510       -0.00131405491053
H           -2.54797177658127        2.12560608814031       -0.93367368554132
H           -2.58809502874388        2.09398931792433        0.83798076161622
H           -1.58109194149532       -3.34180579448523        0.82330178214680
H           -1.54582038967866       -3.31745118793085       -0.96321149383284
H           -2.86614401866105       -2.50997077081859       -0.08474023206521
H            1.01618913815265       -3.40317228744122        0.01583199365705
