25
 energy: 35.730318187816 xtb: 6.6.1 (8d0f1dd)
C            3.35354781748120        1.97230381105385        0.10792598489538
N            2.36499042737116       -0.18950732368653       -0.05083932104969
C            2.54494921355198       -1.47391182260956        0.01570652558554
N            1.36005590970569       -2.18023700172499        0.02702222886508
C            0.37405435292863       -1.24277577237900       -0.01784166743980
C            1.00523919814049       -0.00310499011323       -0.03810645952222
C            0.21443242726947        1.20951475651040       -0.03462057360993
O            0.59145315908435        2.35505045680606       -0.04935877594419
N           -1.17430508397222        0.94225226554197       -0.03474457823043
C           -2.06085855663943        2.10417124882043       -0.04307379423422
C           -1.79435268239782       -0.27629983590172       -0.04853178591652
O           -3.00233539901463       -0.37299028743172       -0.05903515504194
N           -0.97673383235290       -1.41437569658489       -0.04244133932744
C           -1.64338866211741       -2.69316742165033       -0.06489528464435
H            3.69282243103888        1.85194044384341        1.09418368366842
H            4.00249298685563        1.79862141721156       -0.69977701875057
H            2.52121696737515        2.61239437140189       -0.04387103320611
H            3.49722880538344       -1.98555167923157        0.04511458462694
H           -1.43821533378011        2.99313289704266       -0.01721361437154
H           -2.66434381163708        2.11316109168652       -0.94860912794916
H           -2.71062238033605        2.08988841137709        0.82936382809152
H           -1.40836467016744       -3.27626639926238        0.82668150222166
H           -1.37856895599714       -3.25735288704633       -0.96059749443482
H           -2.71354657969140       -2.47353856429055       -0.07971440241734
H            1.25092586934113       -3.18421448343788        0.03951009824893
