25
 energy: 32.875809035060 xtb: 6.6.1 (8d0f1dd)
C            3.52855487980327        2.41557177245292        0.14451754890355
N            2.33099220087491       -0.37773859745934       -0.05485430813172
C            2.45517588354359       -1.65929407019254        0.00972155102595
N            1.25401334405626       -2.32573821226466        0.03002431860675
C            0.30438322271803       -1.34801153796239       -0.01905826826282
C            0.98724226135592       -0.14075301500197       -0.05485870647396
C            0.24247060044488        1.09712968095842       -0.05630684888368
O            0.67671326587682        2.22171195705101       -0.05974076075077
N           -1.13775277080956        0.88725558356606       -0.03913690765826
C           -1.97134560970708        2.08751675917098       -0.03428790551192
C           -1.81368453986108       -0.30695158643551       -0.04762302157760
O           -3.02374105854612       -0.34035114621961       -0.06048352444039
N           -1.04804405350544       -1.47355081950774       -0.03937661195045
C           -1.75292503064308       -2.73005202053114       -0.06801628662919
H            3.83194116029577        2.20103814699942        1.14004909644265
H            4.15946745503761        2.22413849812486       -0.67566644095718
H            2.63289011125865        2.96087878106986       -0.02961416546510
H            3.38306694950173       -2.17767501083058        0.03198781753491
H           -1.30556679659062        2.94508609046781       -0.00945500044398
H           -2.57474093958511        2.13143614680291       -0.93763674978400
H           -2.61273501240162        2.09426374136752        0.84400290247046
H           -1.54643413744206       -3.32406466538969        0.82226682973596
H           -1.51267219331171       -3.30331776332019       -0.96443957013824
H           -2.81367232682182       -2.46579170315085       -0.08339965736698
H            1.11747316662128       -3.32505425051466        0.03615046158123
