25
 energy: -6.230012476570 xtb: 6.6.1 (8d0f1dd)
C            3.23196489533257        1.22005243637431        0.08682709626642
N            2.32219344654927        0.10678961127015        0.03046408273975
C            2.60916269183471       -1.24935018575409        0.03219403576150
N            1.42194587746487       -1.95095997155420        0.00143466229926
C            0.40239913370112       -1.07265520534522       -0.00937250711528
C            0.93012776838526        0.21155755574232        0.01134554637756
C            0.12556740231070        1.37182154344785       -0.00655090503894
O            0.51051678448986        2.54528762505288       -0.00676986795795
N           -1.26043794045829        1.04102959894909       -0.03134549941061
C           -2.20678029145339        2.14413168808370       -0.04887360764190
C           -1.81497192804886       -0.20270075613163       -0.04754029209297
O           -3.01504303972612       -0.38507343714223       -0.07013582918370
N           -0.93962387160790       -1.30783989183373       -0.03756566346932
C           -1.48635119482051       -2.64421227575575       -0.06083193899437
H            3.71759922035629        1.27837832890417        1.06602614880432
H            4.01044384812179        1.11103017865398       -0.67289774831675
H            2.67428354389315        2.14333798415775       -0.08276902112606
H            3.57792369386079       -1.68068166665512        0.04362329807118
H           -1.64533667957386        3.07584808057799       -0.02440529907467
H           -2.81189000027166        2.09518053258020       -0.95341096784192
H           -2.86283387351256        2.07772233572885        0.81802004330675
H           -1.19061035844813       -3.20037055116886        0.83189581305510
H           -1.16537972287622       -3.18006429241264       -0.95743784071445
H           -2.57121509459618       -2.54234706348660       -0.07510222287244
H            1.35580892501613       -2.95598154349791       -0.01249059034104
