  25
        -42.03122633
 C          3.4642729798        1.0310293344        0.0342348354
 N          2.4130767069        0.0483521806        0.0120564911
 C          2.5585887968       -1.2732107457        0.0259731975
 N          1.3530069192       -1.8717328488        0.0067960489
 C          0.3958489937       -0.8907871889       -0.0202237559
 C          1.0660251589        0.3242386958       -0.0155639312
 C          0.3673458065        1.5886349592       -0.0296165462
 O          0.8644318508        2.6920381059       -0.0452983969
 N         -1.0377672719        1.3703456330       -0.0204104825
 C         -1.8638195105        2.5703952734       -0.0096133332
 C         -1.6718057042        0.2178369921       -0.0239700031
 O         -4.4385600933       -2.5511490718        0.1339567715
 N         -0.9749595540       -0.9742725617       -0.0368447335
 C         -1.6441086381       -2.1276845751       -0.0612086950
 H          3.9991830541        0.9912200559        0.9840012487
 H          4.1709707461        0.8471525730       -0.7745581681
 H          3.0232381359        2.0203308549       -0.0838280073
 H          3.4974223324       -1.7915565022        0.0498351476
 H         -1.2111693111        3.4405892930        0.0267495314
 H         -2.4764807735        2.6062761137       -0.9083552231
 H         -2.5188677633        2.5589477326        0.8589756237
 H         -1.1085654623       -3.0590516142       -0.0798681290
 H         -2.7359825589       -2.1231414389       -0.0362782001
 H         -5.3142726974       -2.1866712117        0.2687037082
 H          1.1986741666       -2.8707016372        0.0124446169
