25
 energy: 93.142157854332 xtb: 6.6.1 (8d0f1dd)
C            3.71065749845875        1.60159637644717       -0.08305118924587
N            2.81713764715093        0.51593227143638        0.16573526118172
C            3.12154462617978       -0.73798421306095        0.48021103167873
N            2.02501259936222       -1.51270767591515        0.56596140777767
C            0.93533593436103       -0.67196766329813        0.36456027434078
C            1.46387310596092        0.60777595642238        0.07697839565911
C            0.39632922860733        1.53427445731658       -0.10262391314525
O            0.41129917436091        2.73976738076332       -0.33828274991778
N           -0.75000987778561        0.75557632372322        0.05319264786747
C           -2.06483887266527        1.36836741244519        0.08938013688224
C           -0.47614364398498       -0.58693425631435        0.39957835552472
O           -1.36119404855904       -1.36478956388359        0.79027256946027
N           -3.08215257181432       -2.83403850857660       -0.76062683360725
C           -4.32956322371449       -2.64127280985978       -1.01936545110622
H            4.27983943797752        1.81666998622417        0.81764196012025
H            4.40309933377151        1.34917218310980       -0.88552291958138
H            3.12413483192240        2.47454358439022       -0.37054541484229
H            4.10442307489833       -1.05584876733646        0.74001840985945
H           -1.91450539236054        2.45311116825870        0.10584230407366
H           -2.65530429510016        1.09385073098719       -0.78910670524635
H           -2.61748807767970        1.05472985845698        0.97959810196307
H           -2.66717761352568       -2.18357441218008       -0.10298832294718
H           -3.02997774017678       -3.83050215574508       -0.69067227233830
H           -4.54221387882727       -1.56767051562488       -1.05741603308923
H            2.01377058716436       -2.45918189537189        0.92639503320098
