25
 energy: 88.284183226203 xtb: 6.6.1 (8d0f1dd)
C            3.74232802433800        1.62654730007430       -0.05420895394091
N            2.84590284876580        0.54411776888586        0.18344446211210
C            3.14968579703749       -0.71217489625720        0.48795797220027
N            2.05547344344612       -1.48655229789916        0.57512268123682
C            0.96659511703634       -0.64191105258025        0.38050283593298
C            1.49111993425060        0.64405255009995        0.10555476746151
C            0.41403190397406        1.55929705471941       -0.08887829096800
O            0.41516546500922        2.76329800322070       -0.32117958913692
N           -0.72625441648133        0.76863931238605        0.06045396329618
C           -2.05572525938917        1.35061158755807        0.05494689316319
C           -0.44476699296125       -0.57137887440654        0.39284532827632
O           -1.31759340626692       -1.39701992823598        0.70403488011069
N           -3.13445472714055       -2.87055433347127       -0.69480683834151
C           -4.32007548539540       -2.69853660817128       -1.13747994845665
H            4.29460599418130        1.84631893790313        0.85514116709440
H            4.44576301124815        1.36853213617950       -0.84536116949972
H            3.15831227703693        2.49538792898463       -0.35518173508790
H            4.13535207406477       -1.03559647728833        0.72941505897443
H           -1.93513095075698        2.43759117395179        0.08342816645491
H           -2.61525207350149        1.06626148803974       -0.83948947112517
H           -2.62885545560766        1.02462548907644        0.92705020907389
H           -2.78506983157548       -2.24048341712445        0.01947515492518
H           -2.93604541392523       -3.84879094860077       -0.68960075138408
H           -4.64903902765349       -1.67107990529811       -1.02866200696913
H            2.03342660680181       -2.45259699913875        0.88777265494112
