25
 energy: 80.548585635908 xtb: 6.6.1 (8d0f1dd)
C            3.39342765626684        1.33998853926215       -0.02649757288343
N            2.54348818179449        0.16316763186419        0.09180786244625
C            2.87459844348176       -1.12800882521690        0.33343856389471
N            1.75242818366379       -1.88102586846099        0.32318015624604
C            0.72406143722907       -1.09962178926013        0.00151449018611
C            1.17885722066445        0.18599160345800       -0.13375837506272
C            0.21099316116171        1.30079100337047       -0.18994766051750
O            0.50825974056702        2.48626794657879       -0.28050518382278
N           -1.05735264189421        0.82986170667462       -0.02391140395263
C           -2.15026880654931        1.81080325973838        0.09222737895200
C           -1.53668942531383       -0.56138425274212        0.16538085268785
O           -2.53657277339122       -0.63361002754664        0.85329606349137
N           -1.14142678047502       -1.62033587330186       -0.57448096471285
C           -2.24675184601707       -2.58564364033837       -0.58532936731702
H            3.97283994803156        1.48372285027949        0.89234550111031
H            4.07604008371779        1.26946050797711       -0.88099789074327
H            2.77038435287979        2.22589097331283       -0.20828268865592
H            3.83339469844108       -1.57513027084543        0.49816756963601
H           -1.69115478266247        2.80056094953529        0.09057079488753
H           -2.84637741835664        1.69783084633240       -0.74369800966731
H           -2.74007856667029        1.64890505947972        0.99712380577668
H           -2.32236207382454       -3.10578058124619        0.38718482515863
H           -2.10568289978889       -3.30892696865626       -1.37781584828459
H           -3.10306333280477       -1.95307205182021       -0.76764414253427
H            1.60097599760288       -2.86750745344215        0.49350655991758
