25
 energy: 91.958533077329 xtb: 6.6.1 (8d0f1dd)
C            3.43416554269853        1.38671298700471       -0.12225139649173
N            2.57514486083342        0.23293369165219        0.09441822378685
C            2.85615508134223       -1.04450257227612        0.43566910519738
N            1.71554877891432       -1.76474021529485        0.49642060326029
C            0.66729031895488       -0.93791741474057        0.23455996994029
C            1.21748532893010        0.28155377694351       -0.06144916743640
C            0.21458373600143        1.34936007908361       -0.20757192501224
O            0.49751927977673        2.52825839043827       -0.37740457563539
N           -0.99989303594967        0.79353730214339       -0.04712863209207
C           -2.13228459798704        1.69162478892806        0.16047369812883
C           -1.18954321001761       -0.81317934909299        0.27330590513123
O           -1.93848751012776       -0.91602563862357        1.25049547998967
N           -1.42016092331475       -1.80707600157097       -0.74643990631461
C           -2.67180698985430       -2.49943525247001       -0.73176549375328
H            4.07204201875360        1.55836732316751        0.75387658304455
H            4.03427740929236        1.29821835997393       -1.03441187052854
H            2.81743752750412        2.28053918259987       -0.25897850772698
H            3.81286997419890       -1.48351476710427        0.67345783735099
H           -1.77667025782148        2.73043355299815        0.18646968342673
H           -2.85135023422893        1.57804003143173       -0.64867898233610
H           -2.66792963874511        1.45287328268571        1.08399955504523
H           -2.81388723585491       -2.89276741697148        0.27766950467768
H           -2.59911527081477       -3.36552421308321       -1.37704014075075
H           -3.36732436404006       -1.74543357642253       -1.04665918876882
H            1.64239546162133       -2.76329742730215        0.70175717482710
