25
 energy: -5.123124164312 xtb: 6.6.1 (8d0f1dd)
C            3.26566911821782        1.19666633145485        0.07803830987689
N            2.33850158939600        0.10896221048804        0.03601628366471
C            2.63851339218904       -1.24327589069215        0.06963782021695
N            1.45185914956618       -1.93693029191055        0.04583391101077
C            0.42964800299597       -1.07058671767153       -0.01542717167756
C            0.94727548052078        0.22612630594145       -0.00522032491737
C            0.12860785966301        1.37274214565425       -0.02494933565654
O            0.46848356796540        2.56003592151086       -0.03357591698480
N           -1.25680085573788        1.01084492714796       -0.02942379845627
C           -2.21884771561919        2.09980939394479       -0.03480888609135
C           -1.78554073507406       -0.23879152726908       -0.02403945516598
O           -2.98540609065083       -0.43648613896856        0.03195444347318
N           -0.90978554087514       -1.33791851372304       -0.11382988490322
C           -1.55368061504281       -2.62920337557167       -0.11375574182871
H            3.75819450086170        1.25510737386218        1.05389701135165
H            4.03191607639739        1.08174129577066       -0.69306294623881
H            2.71474995826261        2.12157578737814       -0.09267922814948
H            3.60935693829684       -1.67913017722312        0.09104276542971
H           -1.65431481368485        3.03215934864809       -0.01615321899418
H           -2.83152599971876        2.03804032751707       -0.93426311692430
H           -2.87031349693549        2.02159944723660        0.83542925497478
H           -1.31937470953481       -3.19567023209317        0.79082002170227
H           -1.28084208439128       -3.19873320733783       -1.00052855451282
H           -2.62529258572116       -2.42878312224646       -0.12952382464797
H            1.37144307654516       -2.93844001803342        0.05763517716929
