25
 energy: 15.485722072513 xtb: 6.6.1 (8d0f1dd)
C            3.32076926054031        1.25739138219329        0.04022873250354
N            2.42582112045694        0.12105837282691        0.04694211580551
C            2.74107618350385       -1.23103474792464        0.19457524936252
N            1.56701588039661       -1.94904261620111        0.17748403067763
C            0.51664078583298       -1.14713876180834       -0.02875641244057
C            1.02496059360156        0.17614501528509       -0.08545679115886
C            0.19519907262046        1.32130808407232       -0.10786952482285
O            0.48632547339941        2.52236917868785       -0.15401518536915
N           -1.16792735107959        0.91655151781904       -0.03407575269217
C           -2.18725364147005        1.95871670823834        0.02031818067581
C           -1.63482686070632       -0.34658409024513        0.07950747481613
O           -2.81241619710194       -0.47973012716869        0.36815505457775
N           -0.83104062631712       -1.49132824520616       -0.20756186696632
C           -1.78728903663302       -2.61380914224133       -0.32792260256704
H            3.85517616615961        1.35313707329227        0.99421102742420
H            4.06808804834612        1.19018792732200       -0.76017662135457
H            2.74624671943761        2.17434264114555       -0.12214634872672
H            3.70832596576673       -1.67727152567438        0.27567347854821
H           -1.64230783694371        2.90429121425375        0.01726950340683
H           -2.84088198493182        1.86774354550864       -0.84984611782517
H           -2.81217143325031        1.84466520888583        0.90851707262966
H           -1.79343918328726       -3.20552589329623        0.60028967878669
H           -1.64114847060580       -3.23269909884122       -1.20042329843944
H           -2.77234514858026       -2.13083591669951       -0.38641153826562
H            1.46641629890016       -2.94371629195895        0.27538993445841
