25
 energy: 80.944779734253 xtb: 6.6.1 (8d0f1dd)
C            3.79147776778623        1.65548852240372       -0.01094923337249
N            2.88718695142181        0.55840308308178        0.17294570054317
C            3.19383595034679       -0.70395537060161        0.46119831397093
N            2.08819389037738       -1.45523377890460        0.57975823585509
C            0.99399835863266       -0.62881171332826        0.38046484206484
C            1.52466063734197        0.65866072279728        0.11765725714901
C            0.44998526478079        1.58945589013149       -0.07016773007097
O            0.44414892620262        2.79385433195774       -0.30594098028661
N           -0.69362950123389        0.79387771887389        0.07487414287431
C           -2.03782485204747        1.32266473905517       -0.01657305865029
C           -0.42440893852341       -0.54887709142139        0.36049120166335
O           -1.29856740297567       -1.40459635525619        0.55923048509292
N           -3.29190617379333       -2.95757620638062       -0.67542002286771
C           -4.47829365572242       -2.70699908081054       -1.10981018191492
H            4.30677552720104        1.89010392896929        0.92101684972602
H            4.52805077865270        1.40897005154532       -0.77431822029980
H            3.21493146971442        2.52364562601021       -0.32658207860844
H            4.18582474929120       -1.05845391185279        0.62220494819635
H           -1.95996861881323        2.40947934094685        0.01776592794151
H           -2.53562956655890        1.01812607457898       -0.93937829081921
H           -2.64329303856025        0.96903991047494        0.82064629002866
H           -2.69647573557596       -2.32117679153511       -0.12652400447450
H           -3.06422019469723       -3.94982892108793       -0.67132774850453
H           -4.75325014706651       -1.65694343028463       -0.93330211750320
H            2.07756318063637       -2.44783940239665        0.77375009151922
