25
 energy: 6.397446528454 xtb: 6.6.1 (8d0f1dd)
C            3.30401828599793        1.23580749772020        0.05627004372879
N            2.39968724125020        0.11331475469315        0.03978786605289
C            2.71167248183058       -1.24241099916948        0.14172824025176
N            1.53063492235763       -1.94999577351685        0.13872302829209
C            0.48703924330111       -1.12687194835973       -0.00097767264366
C            1.00094628420873        0.18961706219816       -0.04354386520588
C            0.17667590178895        1.33798864261171       -0.07247293573201
O            0.47995985039295        2.53632797002261       -0.11068209119357
N           -1.19454813138708        0.95204113635698       -0.02785372749483
C           -2.19613199734155        2.00849171616337       -0.00091574211421
C           -1.68517477331736       -0.29960929036304        0.07357866009307
O           -2.87791255221277       -0.42649780535080        0.29804872162205
N           -0.85786158366921       -1.44000889816868       -0.14200082574887
C           -1.71798411101008       -2.61484735426891       -0.23543267611825
H            3.82402460730668        1.31839786546361        1.01812523353422
H            4.05977032198251        1.15628639538202       -0.73315056646585
H            2.73753061928419        2.15655772012144       -0.10506577935745
H            3.67871870117478       -1.68950982868390        0.20803432618944
H           -1.64302564099981        2.94878550984488        0.00372504166472
H           -2.83344322838866        1.92248985028006       -0.88312328486611
H           -2.83376786967086        1.90474716783715        0.87931396734450
H           -1.64366152378539       -3.21577622606233        0.67863735342753
H           -1.53284193903567       -3.21419435714441       -1.11864299891600
H           -2.73516406861925       -2.20935905324359       -0.27457304506354
H            1.42754276449249       -2.94641356540986        0.20494205412624
