25
 energy: 95.503815902255 xtb: 6.6.1 (8d0f1dd)
C            3.54290185215349        1.45418297412208       -0.15793561745030
N            2.67202495292256        0.33832922097809        0.11949021476520
C            2.91819140627856       -0.92088233714662        0.47913932967643
N            1.78030641271473       -1.65423351780153        0.57441067034940
C            0.71365481833257       -0.78262412231374        0.33978698270977
C            1.32400094372613        0.44675177180714        0.00016108302205
C            0.33137319258254        1.44225325673530       -0.16967495624223
O            0.46065750210150        2.62956491778559       -0.46071907943943
N           -0.86387827712183        0.78726178998931        0.06406878063261
C           -2.08202794039958        1.57601507475261        0.17352384208270
C           -0.66139337910269       -0.57704773415413        0.37480342630227
O           -1.74410004417239       -1.31208690915346        0.71932545499259
N           -1.87826339320493       -2.08703941289986       -0.67689041581718
C           -3.21471395777594       -2.49811426503312       -0.81623437961178
H            4.19392782063160        1.65155370531407        0.68711727921874
H            4.14692147400955        1.28486017058091       -1.04970720438227
H            2.93179242677240        2.34249764012659       -0.33578591922457
H            3.85739058948296       -1.35386210857255        0.73874740941903
H           -1.78455920286872        2.63265865569765        0.18234420920719
H           -2.76262723571726        1.39464326969982       -0.65948047962632
H           -2.61548666890487        1.36674266883864        1.10070095322383
H           -3.38125874465743       -2.63117269968938        0.23968667652697
H           -3.16967515438562       -3.48324491512215       -1.26950345616175
H           -3.80726237232493       -1.72480285733338       -1.29363434014458
H            1.72743111188055       -2.63926486646101        0.83207789071765
