25
 energy: 79.260714544442 xtb: 6.6.1 (8d0f1dd)
C            3.81045727377992        1.66174324503952       -0.02955437437464
N            2.89326680578184        0.57171424908347        0.17366882248952
C            3.20211336569200       -0.69470359391913        0.44854724167914
N            2.09195708259168       -1.43813761047087        0.58500515181995
C            0.99917919590827       -0.61395689969663        0.39004375812681
C            1.52834461284846        0.67286095198086        0.13356093945367
C            0.44964933632348        1.59347782973331       -0.07155294988040
O            0.43452150442352        2.79699668764522       -0.31724328301918
N           -0.68596943836725        0.78615439389874        0.07092533291680
C           -2.02813850297325        1.30995332658825       -0.02125803305165
C           -0.41476924054540       -0.54936307800188        0.38148094169309
O           -1.26307357161169       -1.41459051880887        0.61642797102739
N           -3.35556116567741       -2.92915829500097       -0.63910284728082
C           -4.55676654712500       -2.63715699956504       -1.01984848444642
H            4.33714648112652        1.90023775096393        0.89859568289293
H            4.54333008423993        1.40940709253318       -0.79700306455514
H            3.23969217985128        2.53354767944882       -0.34678742194508
H            4.20206229628509       -1.07277590511134        0.53973103817852
H           -1.96371819799859        2.39695997353863        0.00123660738123
H           -2.50538413378600        0.99750134893361       -0.95261010428942
H           -2.62763984950858        0.95066423714679        0.81694821154405
H           -2.68204454875731       -2.30971149385509       -0.18241556319502
H           -3.05203576884903       -3.89493891591912       -0.71587126638442
H           -4.77176402567756       -1.55675539568237       -0.85531563381074
H            2.06352321801096       -2.42336273627669        0.79868252774063
