25
 energy: 86.005025964876 xtb: 6.6.1 (8d0f1dd)
C            3.65574935112341        1.54088565479527       -0.13678586002753
N            2.77741265378878        0.44338271679423        0.14409231060158
C            3.05821260825528       -0.80412754703005        0.50384608076949
N            1.95558797933482       -1.56586392904891        0.60111673147374
C            0.87596597599977       -0.73426633800806        0.37587827416121
C            1.41639766908690        0.52712191398174        0.04318989645403
C            0.37746728567820        1.48425116070367       -0.12875801329885
O            0.44960267562155        2.68748855181334       -0.37320065428846
N           -0.78561216604882        0.74997596217095        0.04304295488266
C           -2.06222473208507        1.43638113734952        0.13179606256022
C           -0.55134048212615       -0.61035539714940        0.42399613291904
O           -1.44150703830558       -1.22212163686934        1.05021421451674
N           -2.51071874106682       -2.52140537550625       -0.74044298522820
C           -3.73960844996194       -2.72077326242376       -0.98490446674459
H            4.26002377081301        1.73973144405986        0.74325040307336
H            4.31759157590536        1.30737894198065       -0.97045212028213
H            3.05483103380480        2.41883641837837       -0.38245447604898
H            4.02874872511110       -1.16011499461980        0.75131913809742
H           -1.85643790835001        2.51365539918388        0.14951742056295
H           -2.70381343081613        1.19765342420579       -0.72023345596564
H           -2.59452991577685        1.15707547847753        1.04426193020598
H           -2.69728170878058       -1.79270981051712       -0.10886511550679
H           -3.83186097423715       -3.76286428248860       -1.20845558353526
H           -4.34055535824888       -1.86518437293354       -1.22962896914858
H            1.92121820626679       -2.52938335296986        0.91280926914246
