25
 energy: 75.198103195623 xtb: 6.6.1 (8d0f1dd)
C            3.55641999454629        0.98235647818624        0.17556998456459
N            2.48856121913566        0.03134680803232        0.12481834889418
C            2.71138069816335       -1.29379370498859       -0.02866563563581
N            1.52402898600642       -1.95256780100016       -0.10183219549296
C            0.48855098709268       -1.04897411258407       -0.02725357305135
C            1.07772115501504        0.24977789181861        0.10461084635680
C            0.36381083750999        1.40195798062265        0.08306597912169
O            0.34171979189394        2.57490835647760        0.30803524927703
N           -1.98017094649529        1.26995513007566       -0.07561426824628
C           -2.86604015618710        2.38308816100589       -0.27420636640939
C           -2.32966982336601        0.14387355761274        0.25614397912150
O           -3.10256066753871       -0.62011457951284        0.68086890843359
N           -0.78640665099730       -1.22950634420550       -0.02688693617746
C           -1.28110014162983       -2.57939030595916       -0.15149238590369
H            3.56617340638634        1.51686654370013        1.12519793781513
H            4.47405663932211        0.43869566402949       -0.07998822553862
H            3.47692350011011        1.82051777447379       -0.50670368666389
H            3.64895758804617       -1.72679378956903       -0.25639276392973
H           -2.21237267308784        3.19162884921264       -0.57129328720555
H           -3.52778003681615        2.17650586134107       -1.10823208724498
H           -3.47708157332167        2.62547810638240        0.59207081636430
H           -0.60127272726649       -3.26617163605875        0.36476693886352
H           -1.37155283084047       -2.78700034996934       -1.22176872185447
H           -2.26107354450365       -2.70574384128092        0.31579551781297
H            1.44392958238725       -2.93281796055164       -0.26810128416409
