25
 energy: 68.231600693465 xtb: 6.6.1 (8d0f1dd)
C            3.67922192589576        0.89875376671149        0.16305192934423
N            2.68128222404128       -0.11608448019495        0.13367734310036
C            2.92757114509595       -1.43245788053530       -0.03499480097203
N            1.75454515418839       -2.11165529357626       -0.08604701569795
C            0.68678951907033       -1.22274359497610       -0.02164646428643
C            1.28899164958730        0.08494585933858        0.12347611869458
C            0.62655833963543        1.23242286772325        0.13152865884375
O            0.40554743801411        2.36937546480508        0.41829223383203
N           -2.60436534670421        1.53386434499919       -0.02051786789407
C           -3.30195982705159        2.71312646751947       -0.30737322966466
C           -2.85351592447333        0.44045294060690        0.35122437662244
O           -3.07906982530308       -0.62902041359461        0.71749281578942
N           -0.56410687742107       -1.39067212326585       -0.04239761185041
C           -1.16261432884314       -2.67914848951250       -0.15081670019317
H            3.52834780456533        1.61693370272674        0.97082645451613
H            4.57477103416494        0.33554854664929        0.39468933479176
H            3.80194629210126        1.46717185594502       -0.76164634842366
H            3.87657812283220       -1.87660750753645       -0.15174342003477
H           -2.50296320547393        3.43312055983453       -0.45083297770965
H           -3.89905675286203        2.58030066385209       -1.20763848096390
H           -3.96379120332035        2.97044628311199        0.51895550451784
H           -0.45596615692393       -3.41332586983165        0.16860776416878
H           -1.47997576667228       -2.85484734043518       -1.18625406173725
H           -2.04855298154845       -2.75710458830288        0.50139450601037
H            1.66659065820523       -3.09533062958976       -0.21756074429207
