25
 energy: 63.162630474258 xtb: 6.6.1 (8d0f1dd)
C            3.75394121974946        0.85732360105532        0.15263725046671
N            2.77792127818683       -0.17538502017332        0.12894291712316
C            3.03755928140182       -1.49405169695326       -0.03519563692495
N            1.86283970956374       -2.17652864582198       -0.08277914807753
C            0.78592878956148       -1.29925650982371       -0.03268239161040
C            1.38585186677097        0.02347692020673        0.11196507098206
C            0.74467781738440        1.17119968637272        0.16771102124193
O            0.34376587082988        2.26403664504152        0.38913050826391
N           -2.89058615460950        1.61650455113239       -0.01860102503847
C           -3.46821634763488        2.85428197076422       -0.32540559652835
C           -3.07538650523391        0.54829249174497        0.45399103997567
O           -3.19111925884392       -0.54346283730061        0.82915892869802
N           -0.46149352508332       -1.48643028276739       -0.06350955884267
C           -1.10576287343034       -2.75264982268730       -0.15431695196062
H            3.62175114698554        1.50400191917711        1.02595736793350
H            4.70533745105534        0.34689826144751        0.25068436764991
H            3.77846496334019        1.43690088222886       -0.78025823323388
H            3.99736362732816       -1.92538726524721       -0.14328036478237
H           -2.63847039551819        3.54386424490211       -0.45317013619919
H           -4.04401491134567        2.76122404964866       -1.24694604091818
H           -4.12732396372065        3.15971993228193        0.48641736250931
H           -0.47308670199176       -3.53902516348072        0.24100543380045
H           -1.35029309253327       -2.93148306617514       -1.20430174165241
H           -2.05846537023423       -2.72323009425475        0.40820126684870
H            1.77344539279981       -3.16184456891675       -0.21532971326116
