25
 energy: 71.977778702134 xtb: 6.6.1 (8d0f1dd)
C            3.64665339904363        0.91850533654309        0.17211750752733
N            2.63789728732368       -0.08607538340284        0.13550227274321
C            2.88024548218615       -1.40114763847999       -0.03266756368273
N            1.70981125713195       -2.08075426540352       -0.08776621809772
C            0.64498461913677       -1.18895817982259       -0.01822054120367
C            1.24363348316409        0.11748653218410        0.12190623567477
C            0.57258560663564        1.26637552293556        0.12135961835468
O            0.40751944842877        2.41409671999936        0.42305419113280
N           -2.47964831638614        1.49369740541926       -0.03621012293109
C           -3.21790533610869        2.65407651022008       -0.30187131839725
C           -2.75926605023275        0.40721639590007        0.33616098451938
O           -3.05849092856751       -0.62117080599431        0.75403233720244
N           -0.60748027104370       -1.35480744380685       -0.03863535787683
C           -1.19604688497872       -2.64989079031058       -0.15591684658673
H            3.49989315610769        1.65318983540336        0.95719989802557
H            4.53845314407291        0.32175773339998        0.31185844146030
H            3.76022760090212        1.53845349408233       -0.71441121114184
H            3.82459296368279       -1.84875740943369       -0.14942064329708
H           -2.42533297030630        3.38240969572074       -0.44999314808579
H           -3.82446573691134        2.50272845843494       -1.19123708854343
H           -3.87583003905208        2.88904234478143        0.53481394055052
H           -0.44831557504804       -3.37239899855146        0.09373852037645
H           -1.55329168118419       -2.82673153074709       -1.17985247564828
H           -2.07645822057995       -2.74796010079535        0.51225196541928
H            1.61803756038888       -3.06357086093816       -0.21868240394738
