25
 energy: 77.156934240210 xtb: 6.6.1 (8d0f1dd)
C            3.63234027584552        0.92669202853320        0.18520731730258
N            2.56970523916709       -0.03030561834969        0.13564920337782
C            2.78650733262370       -1.34709678912084       -0.02980912582616
N            1.61435210786047       -2.01647577610846       -0.09193016818905
C            0.56494767071675       -1.11463541580371       -0.01910369378046
C            1.16710872351841        0.18922218504456        0.11587897249190
C            0.47318154179960        1.33621889245867        0.11370783068551
O            0.33988860558773        2.48766665257659        0.42337024183678
N           -2.24917884118004        1.37447051868473       -0.06113056211478
C           -3.04773485556719        2.51812421302211       -0.29302185485157
C           -2.57261544921409        0.29029270655058        0.32197552007231
O           -3.05200978784423       -0.62641651664532        0.84198859833148
N           -0.69135569831461       -1.28818738718211       -0.02645684626615
C           -1.24071490450599       -2.60676621156494       -0.14359161257860
H            3.51586659995416        1.60389094843707        1.02504452892713
H            4.54718887084892        0.32091238145987        0.10199983337871
H            3.66785623337577        1.68804720233914       -0.59917375102852
H            3.72261466104722       -1.80391520636566       -0.12572928750071
H           -2.31639385204053        3.29245073038591       -0.51771507026785
H           -3.67732320207504        2.34100400674036       -1.15690455599970
H           -3.68770462753197        2.73401105585424        0.56395039584105
H           -0.51249980926078       -3.31415910088406        0.23430644765732
H           -1.50320840808189       -2.79417009311737       -1.18716757709248
H           -2.17358958560330       -2.72367699024635        0.43364910095069
H            1.50780272228196       -2.99878050934524       -0.20796398694401
