25
 energy: -42.443279371449 xtb: 6.6.1 (8d0f1dd)
C            3.28835225701229        1.27452280025488        0.09678926333191
N            2.37109799264452        0.16581939862833        0.07901445061064
C            2.68144802585210       -1.13199702395079        0.10314870676479
N            1.55506498148524       -1.88387726259216        0.10375311537812
C            0.45785297039954       -1.03973880055493        0.08158235647530
C            0.99046826703334        0.27497609271263        0.06771195175404
C            0.18537952113462        1.42821740175589       -0.00125531975447
O            0.58187302824308        2.59681691995472       -0.02914965230115
N           -1.17139612988358        1.08307691420759       -0.04196978959674
C           -2.12263110386102        2.17318736635828       -0.14657782511995
C           -1.72136407227633       -0.17054557559073       -0.04468869112894
O           -2.91526919562785       -0.32987767744235       -0.14923451630440
N           -0.86322646176028       -1.31351372445566        0.05843506629426
C           -1.52284755770026       -2.52898388742526       -0.04204530146495
H            3.91907371266164        1.23722062074593        0.98347776600070
H            3.92523588685675        1.25823974112922       -0.78690207557047
H            2.71792480584185        2.20540755998041        0.10206061832869
H            3.67920627807038       -1.51426491576947        0.13996866298207
H           -1.53785680210453        3.08918092899469       -0.13424728028541
H           -2.69581923649757        2.10394658605697       -1.07029999140521
H           -2.81244590397111        2.15127637316303        0.69432266577286
H           -0.89477975546561       -3.39330225157179       -0.20566360556877
H           -2.44643042645383       -2.42150288395142       -0.62528690497152
H           -3.30460698398968       -4.38063435925542        0.18368557988544
H            1.55043645753992       -2.89156738344014        0.12349002373478
