25
 energy: -42.178579041403 gnorm: 0.009464564626 xtb: 6.6.1 (8d0f1dd)
C            3.21349887860413        1.15131837862201        0.15687648254248
N            2.23912311440507        0.10010483326797        0.07299873276499
C            2.47664929320728       -1.20774493854053        0.00335416068060
N            1.30315926185878       -1.88731628669663       -0.02355607070822
C            0.28080000784971       -0.98367784209303        0.03888014685126
C            0.87199010513039        0.29017614955331        0.09560897281345
C            0.13575914309398        1.50945655571185       -0.10224953553720
O            0.58291283376026        2.61944504285408       -0.30418714318218
N           -1.27050350113439        1.25182548308612       -0.12988315774374
C           -2.10736242563949        2.14220152797698       -0.58254081846500
C           -1.85962808539527       -0.01152667466693        0.58218066468072
O           -3.08581103799791       -0.14544325891228        0.42481690611993
N           -1.02996482507217       -1.18131934800102        0.06140089940552
C           -1.68448604329170       -2.44303650427227       -0.15842320186099
H            3.47532333534749        1.34317294684192        1.20051048031707
H            4.11435574783781        0.87501179803718       -0.38784322661814
H            2.78779634105972        2.06454737486060       -0.26059511247104
H            3.44698775988822       -1.66066733055888       -0.03157611562902
H           -1.71184756489357        3.06934031363428       -0.96040382958115
H           -3.16082248267231        1.91957329591837       -0.55460260042564
H           -1.46682990557345        0.14744326250797        1.62063131455443
H           -1.50405510088315       -3.14187860753267        0.66396864201836
H           -1.35350288100144       -2.88011857351792       -1.10084805451800
H           -2.75530459856394       -2.23119945061630       -0.20869187357539
H            1.22219414417549       -2.89144960586473       -0.08465504453296
