25
 energy: 9.444675259369 xtb: 6.6.1 (8d0f1dd)
C            3.22913620519205        1.17837319731478        0.13183671495657
N            2.31926688705235        0.07733713828990       -0.00658282693956
C            2.64842260486287       -1.27611836904003       -0.05090959442769
N            1.46695102325286       -1.99121142267945       -0.10467258177873
C            0.43410875652788       -1.13196304532294       -0.05655178816769
C            0.90723220030515        0.16598982567336       -0.00895642543559
C            0.03421624785195        1.28904988958348        0.10307764930296
O            0.36696448875911        2.44345136777478        0.39611364678748
N           -1.33382841589846        1.07487172334020       -0.37261815858823
C           -2.25749401407848        2.24004674161816       -0.23772651192942
C           -1.78935953685274       -0.17207690448129        0.05120668295862
O           -2.96350896793247       -0.41463630877057        0.27430764946864
N           -0.91570976582129       -1.31759843752986       -0.00218675107291
C           -1.46920073534183       -2.65847741004812        0.04723118583694
H            3.67283010472508        1.23665859357965        1.13551562903182
H            4.03440533283516        1.10151826972799       -0.60635497329405
H            2.65241180755121        2.08541106957880       -0.04081331356284
H            3.63241745976091       -1.68944773147708       -0.12685399557631
H           -1.76798560448790        3.11032747708313        0.24857963739409
H           -2.61743697730168        2.49913788954604       -1.23143573235674
H           -3.11177067562196        1.97666109012915        0.41691911192823
H           -1.07159288345521       -3.25756759488171        0.88085779085324
H           -1.26581414163350       -3.19192896164018       -0.87971731830517
H           -2.54959589869269       -2.56318662510841        0.12614445617528
H            1.41459848681856       -2.99450844978135       -0.15119253290468
