25
 energy: 90.090208722171 xtb: 6.6.1 (8d0f1dd)
C            3.17072907968390        1.14709723451164        0.11915148458831
N            2.27611562833890        0.02807603055837       -0.05753433067766
C            2.67866246177489       -1.24804962408579       -0.13749995654119
N            1.57597451315902       -2.04699340489892       -0.22741126273781
C            0.48021826647738       -1.24981379453756       -0.15000041864699
C            0.90153028172531        0.06244298486559       -0.08858619297626
C           -0.26342920502578        1.10072378699913        0.17812930607119
O            0.08848288204848        2.07084304394472        0.91853175340749
N           -1.42725951239616        1.41727925212758       -0.80421602226135
C           -2.31752676121878        2.48765436342052       -0.47079617089498
C           -1.55376529703397        0.02797028118709        0.21991540362041
O           -2.65550493106267       -0.19262140030075        0.72169362282238
N           -0.82750253100781       -1.41822990166716       -0.06166141358829
C           -1.46348525431540       -2.70308411896017        0.10985817069808
H            3.52268205226202        1.23165754130361        1.15523628512216
H            4.04090651238501        1.04297694757001       -0.53428410709401
H            2.60592112788746        2.04337116072661       -0.11971567697274
H            3.68475522525608       -1.59507666426444       -0.27083860849672
H           -2.14641709864457        3.07218683575327        0.43577961706747
H           -2.14530079348913        3.08898114959936       -1.34949504837947
H           -3.27770596598635        1.99423788148361       -0.34715273305587
H           -0.96729954108415       -3.31241571110446        0.87501351895096
H           -1.43878738334339       -3.26172069621932       -0.82457367513592
H           -2.50113284910946       -2.54627545712589        0.40921755058619
H            1.58082020173008       -3.04586698070485       -0.31490922892660
