25
 energy: 2.676522026783 xtb: 6.6.1 (8d0f1dd)
C            3.23568783041961        1.18179056274400        0.12255824502357
N            2.31839795564413        0.08829353556842        0.00773785757694
C            2.63794503607671       -1.26515048210785       -0.03013664100102
N            1.45587206275736       -1.97888695081002       -0.07369929610439
C            0.42677905642156       -1.11605719714023       -0.02408390600946
C            0.91063882407020        0.17963274468679        0.01373431309499
C            0.05667307409432        1.31149893420305        0.08052670089397
O            0.40009097861659        2.48060772452087        0.29607448557080
N           -1.32999381144722        1.06214341468942       -0.28154282021673
C           -2.25095842562535        2.21904151731382       -0.18466469884221
C           -1.80971638904805       -0.18758974016956        0.04598427905639
O           -2.99470661949724       -0.42641266397585        0.19301051873600
N           -0.92271846101707       -1.31464151806826        0.03747458308072
C           -1.46990564284269       -2.65618435062885        0.02775397254492
H            3.69325009994174        1.23876532513667        1.12137927019808
H            4.02917557294243        1.08894847900629       -0.62575508354112
H            2.66141987782878        2.09145456983200       -0.04563809238093
H            3.61956963242797       -1.68200300668921       -0.08552551219103
H           -1.72140747291663        3.11121985598302        0.19775534047202
H           -2.67560355328356        2.40228614682905       -1.16881432373962
H           -3.05907423815772        1.99242592356475        0.52692929731308
H           -1.09903025387729       -3.24775519347015        0.87336741647316
H           -1.22759942515029       -3.18559838519150       -0.89341697597168
H           -2.55254806579334       -2.56294303935381        0.07655300226206
H            1.40274570614528       -2.98235796066967       -0.11640736641434
