25
 energy: -2.334906858735 xtb: 6.6.1 (8d0f1dd)
C            3.23811853594719        1.18252603335826        0.11048257640345
N            2.31284344383389        0.09704388491482        0.02389417194342
C            2.62455863723233       -1.25381771614050       -0.00975973622150
N            1.44351106035385       -1.96444944194767       -0.04889818626593
C            0.41564868853358       -1.09742596384860       -0.00905464482473
C            0.91046509460678        0.19496346378271        0.03895328801071
C            0.07478502820072        1.33476679987373        0.05682044910364
O            0.42721831406351        2.51281027136622        0.19811995817313
N           -1.32414083199605        1.05306089385799       -0.19034176329740
C           -2.24504919805300        2.19460539978227       -0.13944974618656
C           -1.82521140047466       -0.19931801251264        0.02871517125616
O           -3.01735453037892       -0.42373377921888        0.10812391914292
N           -0.93163948863015       -1.31181455993806        0.04519887081406
C           -1.47019136450628       -2.65378429293972        0.00305253168758
H            3.70527795661565        1.24009320516057        1.10257284186483
H            4.02347831484551        1.07262209451559       -0.64279982687040
H            2.67256546743660        2.09578826883795       -0.06483038480652
H            3.60455719649088       -1.67153151999691       -0.04177771028610
H           -1.69288453233208        3.10513272196900        0.12704958209752
H           -2.73078753987110        2.30181409669291       -1.10531568166882
H           -3.00448652821777        2.01669751024667        0.62848748756133
H           -1.12330201503028       -3.23435896136963        0.86301902435724
H           -1.19402620686056       -3.18302917939402       -0.91044348436296
H           -2.55423228362235       -2.56234128384191        0.02537599071051
H            1.39190907462976       -2.96855388912280       -0.08442311967099
