25
 energy: 62.592118699873 xtb: 6.6.1 (8d0f1dd)
C            3.20907780374277        1.09388487866915        0.12259870471490
N            2.40366031408540       -0.08900797548327        0.03078771864427
C            2.84434449178703       -1.34951991896667       -0.16657421914548
N            1.78673400192245       -2.21167274020693       -0.14325783670158
C            0.66276882475499       -1.49043579999358        0.05973939258316
C            1.02647412502356       -0.13602336731413        0.17441809492836
C           -0.15019491614766        0.64945062787794        0.41519557627721
O           -0.29014668239979        1.86885162637759        0.56653619949937
N           -2.44889999533636        2.79269044390412       -1.46239399702463
C           -2.67995259799555        2.83675237610161       -0.23034061493400
C           -1.25180038362563       -0.37474959152345        0.44550922373168
O           -2.45304484559347       -0.22569982431585        0.58849296772231
N           -0.66859880075050       -1.66643759377585        0.21262748024842
C           -1.42040229444211       -2.88992606007667        0.15235325410809
H            3.57733529447843        1.22038832180579        1.14531402258605
H            4.05795517365299        1.02828639942655       -0.55718286884689
H            2.59128631951038        1.95316579134919       -0.13214778310380
H            3.86087188905872       -1.63116285771116       -0.34826973175342
H           -2.52063334681941        3.71672279754678        0.40037181181734
H           -2.12519562846608        3.66346531444327       -1.89464504721931
H           -3.01335528917989        1.92393810011725        0.27072444139728
H           -1.06784236025233       -3.58326169468588        0.91541480737449
H           -1.34405717421597       -3.35178292238862       -0.83698445777728
H           -2.46125614289170       -2.62814841181410        0.34734527555682
H            1.85836576744780       -3.20695784115549       -0.28228420672428
