25
 energy: 132.000310899403 xtb: 6.6.1 (8d0f1dd)
C            3.16464597170963        1.13263729126264        0.11597654599790
N            2.28976962805474       -0.00134606945500       -0.02464729999670
C            2.71890652810507       -1.26151812403844       -0.12430853852013
N            1.63935670249732       -2.09110952361164       -0.17224602955132
C            0.52773677392722       -1.33023933306428       -0.07435814558044
C            0.92572398841263       -0.00790981998378       -0.00218437591351
C           -0.28802661269374        0.88603395173221        0.32512158006741
O           -0.08252412404421        1.88976035805784        1.06034140648523
N           -1.51421980237331        1.87482185115172       -1.11203038259000
C           -2.42098015237785        2.70059871217716       -0.51966179188631
C           -1.39041336332211       -0.11548657024690        0.43366244607924
O           -2.51621461713233       -0.15793618896497        0.86879689014039
N           -0.78025357037377       -1.51590640651489        0.04307268004773
C           -1.46023123626189       -2.77571010537327        0.13065750444083
H            3.51262291107110        1.22666748871442        1.15213791913232
H            4.03908552832032        1.03051735048520       -0.52820160177833
H            2.61976291002257        2.03547888506638       -0.14784157107783
H            3.72760917100945       -1.54849855787267       -0.33381198470959
H           -2.10418111759308        3.26864392833890        0.34634226147497
H           -2.44957898429115        3.30312894500969       -1.42772404048765
H           -3.29491252490205        2.05557780955248       -0.31201390974656
H           -0.99685034998580       -3.40974606673072        0.88948961447153
H           -1.47683921995994       -3.27846757346623       -0.83794706773620
H           -2.49149702169455       -2.55785485697054        0.43098645480709
H            1.67471860111820       -3.08445879902256       -0.29644482242449
