25
 energy: 123.386419651717 xtb: 6.6.1 (8d0f1dd)
C            3.16499712544623        1.13715202760941        0.11602794394440
N            2.28074723163808        0.00836293976308       -0.03364588706261
C            2.70588399424764       -1.25865667472846       -0.09529344228348
N            1.61889277050537       -2.07664793822380       -0.18460204139783
C            0.51238134941370       -1.30175859561310       -0.09959682836202
C            0.91439836491050        0.01638432823112       -0.04519010677851
C           -0.32936870570317        0.96006411085679        0.25427095003176
O           -0.04365708493340        1.94068068615218        1.01157015146850
N           -1.46108525900392        1.74473280312833       -1.02826389524867
C           -2.38120209895014        2.62820854251060       -0.51941656958596
C           -1.42445262572468       -0.08298054067201        0.40458763286312
O           -2.55807548388292       -0.16594069128601        0.81763818698217
N           -0.79716367648810       -1.48356823041578        0.01824232982424
C           -1.46017336389828       -2.75303669940235        0.12894549769340
H            3.53439703153936        1.22045497606576        1.14499062432034
H            4.02472154645102        1.04184731656496       -0.54911818565826
H            2.61213313219919        2.04068217891668       -0.12741100982795
H            3.71370072845825       -1.56658143679116       -0.29316243976103
H           -2.09247355086235        3.19900036160238        0.35601557765812
H           -2.38482995538129        3.19326506357387       -1.44456217333968
H           -3.29078908135086        2.01415581340897       -0.39756412039824
H           -0.97025463367363       -3.38892993827196        0.86897124147998
H           -1.47021901599533       -3.26795833971127       -0.83220487081268
H           -2.48535870909607       -2.55531199912159        0.46029046996185
H            1.64203042330080       -3.07124234468851       -0.30303735455763
