25
 energy: 61.982774133829 xtb: 6.6.1 (8d0f1dd)
C            3.21091422981224        1.09038045532146        0.12609748963110
N            2.40140707717682       -0.08873899867490        0.02896278701032
C            2.83737749325128       -1.34942592959912       -0.16621490938409
N            1.78291613518001       -2.21033302753861       -0.14293087888189
C            0.66483427626002       -1.48626078929126        0.07749602514823
C            1.03077765532626       -0.13750005798040        0.19081900154570
C           -0.14409893575037        0.65092666652295        0.40505832753138
O           -0.27134991955573        1.87937127370392        0.53433192159589
N           -2.54432236416192        2.82397105510370       -1.47270532209382
C           -2.67337947819951        2.84701753700612       -0.22759128324985
C           -1.23674216835677       -0.36463075529605        0.43705348622095
O           -2.43049889884037       -0.23088954628617        0.61809782341475
N           -0.66074737210839       -1.66290372484720        0.22050325435708
C           -1.41697069562253       -2.88355795039392        0.15332420032600
H            3.58193281531651        1.21833554407375        1.14653350313477
H            4.06076672878156        1.02531527745554       -0.55320429312914
H            2.59724996026210        1.95312261185444       -0.12721930216795
H            3.85278943774997       -1.63532638973516       -0.32863595636261
H           -2.49070558686476        3.70028062051469        0.43554935617796
H           -2.21565192943450        3.67719808758596       -1.92896572106406
H           -3.00519602643855        1.93715920293765        0.25731123547277
H           -1.08130250648914       -3.59302182487550        0.91359167189090
H           -1.33496281682449       -3.34036804422136       -0.83601978559861
H           -2.45917538050679       -2.62429322805234        0.34034927485747
H            1.85635257500947       -3.20679927654517       -0.27455799418916
