25
 energy: 26.770496825318 xtb: 6.6.1 (8d0f1dd)
C            3.20928873928274        1.16553844958916        0.13380356991527
N            2.30961552036837        0.05591350999544       -0.02576046951852
C            2.65527932073587       -1.28012552472826       -0.10337391692438
N            1.48977563304270       -2.00680200089495       -0.17610981701462
C            0.43955544418751       -1.16159520024743       -0.14122418882320
C            0.89410418322689        0.14141199278522       -0.05312150416981
C           -0.02347484597322        1.23865414502060        0.12416442513957
O            0.28720982434409        2.34283942763327        0.59046479818243
N           -1.35118823952199        1.12811007879832       -0.55097115710469
C           -2.26919632418336        2.28142242671227       -0.35438899667042
C           -1.73918508540539       -0.12210660123974        0.04882722054695
O           -2.87625613125493       -0.35545544015969        0.43639197438434
N           -0.90720433848752       -1.32223142194997       -0.09637039741860
C           -1.47007321130795       -2.65627384387203        0.07839360087285
H            3.61066040363959        1.23698256457027        1.15289012025238
H            4.04572672156565        1.08752771372260       -0.56573114479915
H            2.64240671178248        2.06983371074361       -0.07579185448482
H            3.64518609108885       -1.68960235182432       -0.21177388161833
H           -1.88878788809536        3.06989583461947        0.32100721963618
H           -2.48534501171156        2.69298470840842       -1.33313685661066
H           -3.18469925715943        1.95708825023247        0.17552609257569
H           -0.99341431285464       -3.24543148676925        0.87978185807872
H           -1.35802875175609       -3.21080477847523       -0.85123649565817
H           -2.54219597711645       -2.56537928624589        0.22631822975651
H            1.45009205880569       -3.01183542531615       -0.21812537797546
