25
 energy: 106.847928289914 xtb: 6.6.1 (8d0f1dd)
C            3.16826138328800        1.14271081334553        0.11409632000995
N            2.27558159512382        0.01974404043524       -0.05039112830482
C            2.68918247980560       -1.25192319972538       -0.11050407017010
N            1.59571383177033       -2.05939366372606       -0.20601821942141
C            0.49715672039802       -1.26916796383005       -0.12689366782335
C            0.90534394976453        0.04451572896920       -0.07977251757529
C           -0.34874686269561        1.06283715441759        0.17213926215100
O            0.01064516329237        1.98913346539393        0.97807496229118
N           -1.42139786506613        1.57853826362469       -0.90702258807203
C           -2.33846598821075        2.55482135693783       -0.48980195680055
C           -1.47590891654850       -0.05143594601140        0.32945069680491
O           -2.60002436745699       -0.18116991697423        0.76935411594653
N           -0.81623409795970       -1.44463060108095       -0.01387002738430
C           -1.45924130863006       -2.72693106663573        0.12159055486755
H            3.54171420194730        1.22658001432341        1.14055932935291
H            4.02799053826900        1.04267343371677       -0.55414720587085
H            2.60402014713617        2.04247638322252       -0.11451527039088
H            3.69943146781865       -1.58475403512161       -0.24896140164153
H           -2.11878519860682        3.13863577588484        0.40020628711597
H           -2.25002412963474        3.13553121684550       -1.39935542769284
H           -3.28200956392172        2.00411577137751       -0.39611885251819
H           -0.95888339091097       -3.35230157996764        0.86502734604153
H           -1.43286194456782       -3.26863180018952       -0.82379607755356
H           -2.49092633644030       -2.55265892378796        0.44004996960049
H            1.60886710955829       -3.05441509233929       -0.32066494864854
