25
 energy: 51.956493496349 xtb: 6.6.1 (8d0f1dd)
C            3.18883583353959        1.15404810374560        0.13461377090839
N            2.28774612320991        0.04788042583474       -0.03107086808125
C            2.65835535074716       -1.25286552444529       -0.16423562617767
N            1.52436082468713       -2.01703844058280       -0.23298658630445
C            0.45219386282177       -1.19798039503515       -0.15620984359035
C            0.88678577919959        0.11379346046312       -0.08213298054399
C           -0.11375688809729        1.17539369361013        0.17438800531906
O            0.19795749861469        2.22220663762884        0.77380917517914
N           -1.38271281088937        1.23105571720728       -0.65592283837418
C           -2.28504707825692        2.35953573027876       -0.42303916038404
C           -1.66441831055954       -0.03887105718882        0.10136172777649
O           -2.76652977623332       -0.28133635523369        0.59570014869314
N           -0.87382646831597       -1.35040968416754       -0.08515016273187
C           -1.47864252650317       -2.65921569632571        0.10574102242812
H            3.55142751718019        1.23561566468220        1.16551199602836
H            4.05259407099097        1.04918834878607       -0.52510060363799
H            2.63820068538431        2.05709948866251       -0.11439945313684
H            3.65969412727735       -1.61869300700530       -0.29262120765330
H           -2.04588541297895        3.02234149166797        0.41150278427412
H           -2.25977358027969        2.88890185925691       -1.35568627695004
H           -3.24451521043677        1.95520178103490       -0.11003725428737
H           -0.98511169040042       -3.24703600285545        0.89515329929003
H           -1.43757368268043       -3.22458167802920       -0.82507504172515
H           -2.53436821106123       -2.54726473469075        0.32445129452699
H            1.50817336359398       -3.02183228260004       -0.27723275414762
