25
 energy: 78.198983018196 xtb: 6.6.1 (8d0f1dd)
C            3.18701390869919        1.10348275379902        0.11239733119515
N            2.38116773793502       -0.07165353964524        0.00515915767928
C            2.82184368308137       -1.33374525877058       -0.16226696154402
N            1.76778752446267       -2.19151578109441       -0.14629367659410
C            0.64364900512551       -1.46736088738391        0.02589738563214
C            1.01596629098724       -0.12342963213138        0.14643607853458
C           -0.11647458073561        0.65206453894551        0.45945618880085
O           -0.23644779295114        1.87713282284154        0.65087326125296
N           -2.20424835874692        2.70010464508211       -1.48331990951264
C           -2.64879022450788        2.83961335409716       -0.31093518685944
C           -1.24121796063514       -0.35530786671001        0.47747139556227
O           -2.43831096240818       -0.19748445435666        0.58644058575809
N           -0.67474548369866       -1.65558074279391        0.20006355415489
C           -1.41545776755130       -2.89398495534888        0.15051843419784
H            3.57185832283500        1.19347608648535        1.12626765558732
H            4.02137402770397        1.04892656815909       -0.58863958821845
H            2.57219955574175        1.97954518347610       -0.10782069368718
H            3.84099071248856       -1.62214875783065       -0.27524477697286
H           -2.40983003018462        3.68925269516030        0.34483945714215
H           -2.23588707039778        3.66022197730032       -1.77345955317955
H           -3.20796733493975        2.04840535102942        0.14776190295963
H           -1.09019528615793       -3.58293991497611        0.94297352428253
H           -1.31762603654363       -3.41602164531176       -0.81491096864225
H           -2.46424379764610       -2.62716682948427        0.31564211167375
H            1.85149799961242       -3.18569644789947       -0.26343528478960
