25
 energy: 43.214731153737 xtb: 6.6.1 (8d0f1dd)
C            3.04394887684043        1.22287408126015        0.10833424647703
N            2.20323086773126        0.02911513743754        0.05978695387467
C            2.53535236315944       -1.31168633368634       -0.01827575519682
N            1.34376122317910       -2.03392315043610       -0.06858753537421
C            0.26394081708576       -1.19512032119958        0.01402574819731
C            0.80266988724301        0.08748120988549        0.09183572431967
C            0.02331811769695        1.23253346362786        0.21301558943091
O            0.49306010507943        2.37820311046213        0.37356985387258
N           -1.37922817379013        1.11766699202987        0.05566466952194
C           -1.94520201076194        2.54953841575234       -0.17545829460668
C           -2.15152239651512        0.05651508205008       -0.01556748979133
O           -3.32404147251831        0.05370517003034       -0.20744634857206
N           -1.07473450136447       -1.43104614583838        0.03236203579707
C           -1.37118443456460       -2.84586467978945       -0.03372468404926
H            3.65640039790541        1.27943609356250        1.01162930750079
H            3.70488848066587        1.33475147361178       -0.75968894502983
H            2.36426087610806        2.08320985904680        0.12174958614658
H            3.51372986770281       -1.75741843180716       -0.04799100367055
H           -1.03513641167859        3.08708812089412       -0.42915623891035
H           -2.71009647608799        2.69536815030745       -0.94647613287240
H           -2.39134803857344        2.95654463675718        0.74151579376077
H           -0.93244940765732       -3.36800389234030        0.83348696474370
H           -0.91664590526482       -3.31527283592023       -0.92191436925377
H           -2.45012514878949       -2.97273481376211       -0.05351945926946
H            1.33154452361381       -3.04247898190555       -0.11539651247578
