25
 energy: 90.881957803871 xtb: 6.6.1 (8d0f1dd)
C            2.96005076832620        1.22777537891821        0.10812732186069
N            2.16711310913954       -0.01689984268867        0.05405421059156
C            2.53739593854713       -1.29564086782512       -0.03413242270971
N            1.43930629349765       -2.09869982734422       -0.07107689815784
C            0.26882934011827       -1.32060367068433        0.00394051760477
C            0.78347066930902        0.00036616953788        0.08664217555372
C           -0.04864512046320        1.11247500511882        0.32299192924720
O            0.35054581619801        2.25006280684058        0.54575892287888
N           -1.36789396975724        0.79176998373069        0.29003142612731
C           -1.94505036686827        3.12975460717000       -0.32320016328347
C           -2.40320269463274        0.26505039631235       -0.01610710119992
O           -3.52206981439911        0.43889462818059       -0.25384429148060
N           -0.96496174337037       -1.66497500347415        0.00456294092912
C           -1.25600036710391       -3.05103982768422       -0.02455074862984
H            3.61695449108865        1.27466856005208        0.97334006962006
H            3.57039290016407        1.41790531849377       -0.78314864974434
H            2.24930579602416        2.06129475321434        0.19617548808650
H            3.52173538820847       -1.71685905357076       -0.09231869796835
H           -0.94743081925455        3.09428355898600       -0.70656873827099
H           -2.76918230747835        3.05788489839230       -0.97940058533080
H           -2.17294081886553        3.30174110718030        0.70290927681321
H           -0.81558756917652       -3.53230132236122        0.85416074145966
H           -0.80679810113388       -3.48809439883426       -0.92009557347448
H           -2.34976545744173       -3.12958712522051       -0.04193965577952
H            1.45378223495014       -3.10205505106116       -0.14530407394213
