25
 energy: 107.349794791560 xtb: 6.6.1 (8d0f1dd)
C            2.72452232907481        1.21640993255134        0.12405058462980
N            2.13016573394714       -0.09120722582713        0.06479179450896
C            2.72125669700767       -1.28453592063553       -0.02905787303838
N            1.76263650794958       -2.25621964795595       -0.03667701851710
C            0.53390168953231       -1.64826152150091        0.05661055351601
C            0.77983451526093       -0.28312057757354        0.12574856848136
C           -0.33011157739587        0.62808432297504        0.24519339973609
O           -0.21543572247511        1.87178510688190        0.30776305158903
N           -1.49891005323244       -0.02221987373376        0.30521339291637
C           -2.61030212383609        3.98303088649284       -0.29432704753206
C           -1.84855858876795       -1.24208065234010        0.09554652305194
O           -2.60459825728005        2.66898085098273       -0.10780049536761
N           -0.68949894183031       -2.15553214359117        0.05271428253074
C           -0.91773692643497       -3.56382553440480       -0.00075188829289
H            3.48849511420315        1.25800434826540        0.90198812564946
H            3.12444269311740        1.49922881272442       -0.85151997537079
H            1.93982608331771        1.93564628558895        0.37332814927337
H            3.75663282671181       -1.47032314353056       -0.13565106160753
H           -1.66366671951163        2.55796792089471        0.17766131050210
H           -3.50769955836187        4.36570731344343       -0.68329863144251
H           -1.74429826818335        4.63715516627208       -0.09490175849326
H           -0.46842035650553       -4.03379338224314        0.88012083264323
H           -0.46614451271832       -3.95972017818833       -0.91212763772700
H           -2.00597855505769       -3.70932639509648       -0.00376401409516
H            1.93105404103050       -3.24247340365813       -0.11929621608378
