25
 energy: 14.054951028296 xtb: 6.6.1 (8d0f1dd)
C            3.11466303655669        1.21339871762087        0.10728192374709
N            2.24176621568263        0.05655117360250        0.05470529512040
C            2.55009063595762       -1.30542270597237        0.01094362810465
N            1.34016495373639       -2.00454546556262       -0.02099143174795
C            0.29530012726015       -1.13694602965126        0.01417204970246
C            0.84292699212718        0.13269944603982        0.06346781954734
C            0.04905658783575        1.27400584562936        0.11186393526380
O            0.50907572737189        2.42484122485081        0.19462449741786
N           -1.35853315254413        1.08631405167490        0.04258998027598
C           -2.03100849491988        2.41179068706978       -0.10841192249220
C           -2.00004985891447       -0.11268101615556       -0.03414794107035
O           -3.20229541869929       -0.13781241840659       -0.13623739898580
N           -1.07524038500473       -1.33685241616459        0.00812403857342
C           -1.42230667093553       -2.75286111624422       -0.03916735829813
H            3.68724647675363        1.28757028788961        1.04039961820989
H            3.81743062045904        1.24635411964903       -0.73246368951042
H            2.47155230467636        2.09581121923137        0.05028033176558
H            3.52983722516789       -1.74881678785184       -0.01405939322892
H           -1.15165769609043        3.05487121697682       -0.19421901740657
H           -2.72885288451806        2.50433106452433       -0.94889575054946
H           -2.61030426181622        2.68898674558198        0.78375734361580
H           -1.01454848002278       -3.28620011238264        0.83211050847242
H           -0.99533228754066       -3.24235321619508       -0.92720197930944
H           -2.50422167083627       -2.83252292374798       -0.05903004342754
H            1.28025827075447       -3.01090988848469       -0.07610884177337
