25
 energy: -5.413173870282 xtb: 6.6.1 (8d0f1dd)
C            3.21119865623867        1.19043054870093        0.09251277763516
N            2.28927091403894        0.09927625296201        0.03630900129398
C            2.58868407480209       -1.25241830273229        0.02957530871397
N            1.39885373931771       -1.95024795197381       -0.00103677580548
C            0.37122907803070       -1.07731877288825       -0.00132914089920
C            0.89600661624693        0.20850037404167        0.02307672833243
C            0.08029197243968        1.35000507470414        0.00817915515445
O            0.44294337321173        2.53167630344777        0.03024247069330
N           -1.32223762924928        1.02429730657218       -0.04073863085372
C           -2.18710190207221        2.19895122773482       -0.07152616161657
C           -1.88870213566917       -0.21428023253751       -0.04680989207893
O           -3.09097925203316       -0.38892275198453       -0.07760980781538
N           -0.97754355459054       -1.31357023156021       -0.02560824388289
C           -1.45867295363011       -2.67501045933324       -0.05528106947077
H            3.71546553161301        1.24081584092069        1.06386154875477
H            3.96665649726608        1.09715054690084       -0.69139800928784
H            2.64058923996727        2.10628882616322       -0.05611257484998
H            3.56668182827054       -1.67526165416975        0.03152433550029
H           -1.52355705694605        3.06127159312731       -0.06455814633004
H           -2.81941857598542        2.20321625956224       -0.95870769036671
H           -2.83118016203459        2.22952779859151        0.80818477141933
H           -1.12838583503527       -3.22295385694502        0.83165442470774
H           -1.10428892764644       -3.19519699487152       -0.95009504962317
H           -2.54563785220337       -2.62533400480073       -0.07135721858015
H            1.33729853177248       -2.95470838430735       -0.02218098096482
