25
 energy: 99.231385483125 xtb: 6.6.1 (8d0f1dd)
C            2.75342996789646        1.21876841294514        0.10793514340741
N            2.12806888138681       -0.07286392479041        0.07024309180212
C            2.73124042550668       -1.26924133356749       -0.02305710142162
N            1.77287733856164       -2.24541280246839       -0.03493778775141
C            0.53429638848939       -1.64823979017924        0.05248617167151
C            0.76459282123608       -0.27801171549774        0.12854155667942
C           -0.37239314724432        0.61318638118967        0.20819758188246
O           -0.28790790973943        1.86740032840651        0.22180918394860
N           -1.54679338776386       -0.02869907967538        0.24566658695976
C           -2.67276836998417        4.13876623138900       -0.36255553647628
C           -1.80519423331279       -1.31390790406516        0.13080279831496
O           -2.63722680095108        2.86145483604769       -0.10382377169599
N           -0.68816694657855       -2.18844717931838        0.04982711875145
C           -0.91329827895769       -3.61862394921055       -0.01344187007056
H            3.41683577801532        1.29143463609483        0.97147856505766
H            3.31046116716889        1.39841396463991       -0.81212221849156
H            1.96642416689678        1.96687303043991        0.18356617787250
H            3.78289027347714       -1.43504315668029       -0.08398286798067
H           -1.67988103943348        2.50538038539198        0.10180553842890
H           -3.64544357145634        4.54385529230646       -0.55976237625306
H           -1.79169124453683        4.74450659396952       -0.38946716617515
H           -0.50166993906428       -4.13364747798650        0.85949983712029
H           -0.48180139172466       -4.04614223053369       -0.92113204475939
H           -1.98935199665195       -3.78598745625825       -0.01764874320141
H            1.96357086026818       -3.23058126344796       -0.10550955246033
