25
 energy: 131.536509138676 xtb: 6.6.1 (8d0f1dd)
C            2.74516120886053        1.23712354548076        0.13672183997324
N            2.12287097950271       -0.06438321813838        0.05266878956138
C            2.63288943423125       -1.28432885886534       -0.06409572568036
N            1.63450059618259       -2.20818264038013       -0.06647358215720
C            0.41135992376330       -1.56025684258884        0.03269078499481
C            0.76014758551593       -0.20465855693669        0.13583998129085
C           -0.25048245270183        0.75067195944107        0.31666928518136
O           -0.07656383123971        1.97951646728459        0.46830849509748
N           -1.46951554496366        0.15348007995560        0.25865060694071
C           -2.42261549580513        3.65988424612735       -0.35599831383737
C           -2.04892176435848       -0.91486598752608       -0.00980084211238
O           -2.59684427484902        2.30987711103973       -0.23845886459406
N           -0.79692953135519       -2.03559219146360        0.01684333572169
C           -1.02963182369948       -3.42154665731381       -0.00087707440322
H            3.56621213164760        1.21348460566484        0.84406266502638
H            3.09870880182152        1.59904036561056       -0.83265035040830
H            1.97319509835416        1.93312023670020        0.48173954015327
H            3.65600139996838       -1.54060882341443       -0.16612404963705
H           -1.62590797874615        2.27089432256552       -0.10293880234121
H           -3.24473473851693        4.12912310769049       -0.78511292531039
H           -1.63690730683043        4.18393324811810        0.19105341470726
H           -0.55102148890174       -3.85029873115650        0.88655416255315
H           -0.55468887708550       -3.81413649348716       -0.90179195238550
H           -2.11669243404596       -3.54100533912235       -0.00877666642251
H            1.76350925326811       -3.19830772142504       -0.15883214864741
