25
 energy: 104.115031932856 xtb: 6.6.1 (8d0f1dd)
C            2.73727424691713        1.21529820568058        0.12022788251167
N            2.13430675185677       -0.08964140020433        0.06277061225513
C            2.73897725571894       -1.27841894961164       -0.02678068127275
N            1.78837380186293       -2.26209902444196       -0.03208939321743
C            0.54799250252529       -1.67094097843639        0.05764595992055
C            0.78051733502388       -0.29836919978302        0.12011865063709
C           -0.33477659657996        0.60125920397452        0.24711516821142
O           -0.23343415820803        1.84950929509948        0.26804157309093
N           -1.50897503421137       -0.04286138628458        0.28554443782577
C           -2.62581713081524        4.03922682254328       -0.34885388897782
C           -1.82771100499653       -1.28421185018461        0.09510666054124
O           -2.58969588985312        2.74603938745566       -0.09818034224182
N           -0.67279697751123       -2.19219788694752        0.05457323870509
C           -0.90543206882809       -3.60428324883600       -0.00292982932068
H            3.46455133096700        1.26761480736876        0.93255344058804
H            3.18973366890765        1.46775739088802       -0.84083099230066
H            1.94706539501658        1.94426888728605        0.31194147450968
H            3.77807906268213       -1.45894385199207       -0.12581361333764
H           -1.62719997374250        2.58946193890151        0.17273415349229
H           -3.56302059439242        4.42514074952234       -0.63791417692821
H           -1.76362809196707        4.69692512950120       -0.23252239642827
H           -0.46431563205739       -4.08428355764463        0.87570297134843
H           -0.46069516061308       -4.00368335944831       -0.91619719278405
H           -1.99098752071962       -3.75406480174797       -0.00239782103589
H            1.97074890176174       -3.24787671236058       -0.10965764847064
