25
 energy: -1.534136430432 xtb: 6.6.1 (8d0f1dd)
C            3.17905411643899        1.20269452685757        0.09817590447666
N            2.27093044277292        0.09223156951745        0.04286206068378
C            2.57442930582060       -1.26541596446987        0.02512383384908
N            1.37781622526534       -1.96488645919981       -0.00583469733529
C            0.34424601909974       -1.09560640019846        0.00489059313918
C            0.87391661368720        0.18683790539823        0.03436703638688
C            0.05788478648512        1.32116077594923        0.02827352950905
O            0.43804958102895        2.49825496164937        0.07543626630139
N           -1.35407994889487        1.03197506339928       -0.04446445522395
C           -2.14476715151096        2.26382677715136       -0.09034448987235
C           -1.93350651873010       -0.19935742787688       -0.05228931217322
O           -3.13737304147603       -0.33328472593741       -0.10065774921428
N           -1.01360679374285       -1.32130249510283       -0.01549399758358
C           -1.44737261241282       -2.70237399655684       -0.04983113345093
H            3.71249658690661        1.25741051661127        1.05511801101229
H            3.91762195703950        1.15142761942853       -0.70715984514343
H            2.58375796622345        2.10856221588239       -0.01873439749808
H            3.55352572896065       -1.69633385482036        0.01920122319165
H           -1.39685503165290        3.05371856363153       -0.11089332562777
H           -2.80462132394654        2.31130960710853       -0.95760933757975
H           -2.76670626608671        2.38163631541715        0.80125442340783
H           -1.09082392495936       -3.24621141809651        0.83181745452675
H           -1.06765967570165       -3.21321936468934       -0.94212939219899
H           -2.53416293524748       -2.69583504610126       -0.06756353519005
H            1.31054426905956       -2.96992714254064       -0.03693457674879
