25
 energy: 113.392369856771 xtb: 6.6.1 (8d0f1dd)
C            2.70459803408903        1.22945763572690        0.14475025675223
N            2.11896357021578       -0.08106892432233        0.06112187313637
C            2.67252928359794       -1.28895707439347       -0.04573279039349
N            1.68962159480166       -2.23738342148717       -0.05318536881777
C            0.46811921054551       -1.60940374025418        0.03827069330209
C            0.76172979283736       -0.25336273253798        0.11315419371414
C           -0.32015226836980        0.65237924310315        0.28212644429858
O           -0.18112972016241        1.89289851792835        0.38569016054475
N           -1.50962965251490        0.02680042008172        0.30551669100539
C           -2.48842644771764        3.83099048162750       -0.29629597527898
C           -1.92661392940858       -1.16150719031927        0.04105798399032
O           -2.60690399834793        2.50790001501725       -0.15677788183181
N           -0.76029498588399       -2.09527872828138        0.02229369875175
C           -0.97117981779783       -3.49309483562584       -0.00006302873662
H            3.53354783841972        1.24155571070331        0.85052550444898
H            3.00191064323027        1.59062103931361       -0.84180151529684
H            1.92476769235097        1.90486827971823        0.50579570704494
H            3.70589655902572       -1.49028793943524       -0.14906443335470
H           -1.69391083024866        2.35803083208191        0.07460289426034
H           -3.32718668324481        4.26606231826372       -0.74369790491743
H           -1.63412967095071        4.41869546267022        0.07453844143834
H           -0.49673359417387       -3.93471036050901        0.88485041318447
H           -0.49997726559445       -3.88920340998964       -0.90407735413563
H           -2.05532956548306       -3.63493709665652       -0.00400072814971
H            1.84259974355675       -3.22642917930100       -0.13519618572185
