25
 energy: 98.983336671212 xtb: 6.6.1 (8d0f1dd)
C            2.74817359625859        1.21644677572414        0.11692470580658
N            2.10202141094491       -0.06379495315621        0.08025092718114
C            2.70574890957210       -1.25878426137795       -0.02504183670300
N            1.75829376994045       -2.24059540156620       -0.04077365271804
C            0.52720298790351       -1.64532200295295        0.05853796316826
C            0.73977680773435       -0.27236307467143        0.13423498653642
C           -0.39923913008638        0.62097750050993        0.18679491415355
O           -0.30252669263929        1.87209390583517        0.22650029393960
N           -1.57581266171300       -0.01854331839205        0.16646664254170
C           -2.66416816665563        4.14302885543410       -0.35748179639352
C           -1.79202513306246       -1.30813569347059        0.12007731862546
O           -2.63071099810114        2.87055660583306       -0.11059588924516
N           -0.69514073676032       -2.18511406568671        0.06535593152351
C           -0.92890808864506       -3.61046402625895       -0.01176958391757
H            3.42452252794256        1.27858807007575        0.97127550393329
H            3.32077437455580        1.37884576721709       -0.79821792567959
H            1.97967805347565        1.98422725161015        0.20577240256024
H            3.75614604456237       -1.42060897627193       -0.08741747461811
H           -1.68586041763996        2.48057291976700        0.08680699056146
H           -3.63179547243707        4.55936902935902       -0.58419011851961
H           -1.78004709320020        4.76007706431122       -0.37063416063746
H           -0.51743342730925       -4.12334444718416        0.86189906467885
H           -0.48637961228249       -4.02754843410616       -0.92006875408362
H           -2.00570278000283       -3.77566503814007       -0.03900912290944
H            1.94562623262364       -3.22547126369375       -0.10866341760216
