25
 energy: 102.591229154274 xtb: 6.6.1 (8d0f1dd)
C            2.82917078578534        1.23119207524776        0.12000600196431
N            2.13928858651288       -0.05237285980325        0.03925286765585
C            2.58463943382577       -1.28852468578748       -0.07354981798330
N            1.56580905571926       -2.17446181329493       -0.08118858272764
C            0.34578823030850       -1.48586866797948        0.00504895242844
C            0.77773260727702       -0.12982786268297        0.10185188286841
C           -0.13074925676579        0.87644739452256        0.38808660021045
O            0.07781348710212        2.04028428255029        0.68520612397944
N           -1.36298849290890        0.22144035649421        0.37659074390520
C           -2.05470105112090        3.47491875916094       -0.36004187860642
C           -2.47896306740093        0.34105833939889       -0.03943576331990
O           -3.38366213797293        0.99795774998272       -0.32505624498946
N           -0.84915860414358       -1.90006142522021        0.00779277486954
C           -1.10656589765768       -3.28689681444237       -0.00239210356860
H            3.58465131720998        1.22916700498576        0.89777613928565
H            3.30211496416507        1.53100868149962       -0.81722816139052
H            2.07759137686182        1.99138199842212        0.36022849175527
H            3.59321972541208       -1.61447022280705       -0.15805824100654
H           -1.35630252040360        2.81248387714992       -0.76994264221343
H           -2.97222641477435        3.65045485281227       -0.81592212333098
H           -1.77551718714093        3.84595754005214        0.58475697760359
H           -0.63398338824324       -3.71323386505284        0.88550188831874
H           -0.63467959995634       -3.68476534333165       -0.90060691975455
H           -2.19876129387940       -3.38805545693167       -0.01555669292175
H            1.65485855354747       -3.16964679557574       -0.16376785748173
