25
 energy: -42.105272067139 gnorm: 0.003133987515 xtb: 6.6.1 (8d0f1dd)
C            3.14184400675787        1.14842445373221       -0.04538441159391
N            2.23134372292812        0.03514880954551       -0.03002866199219
C            2.55003713743617       -1.25591258467646       -0.00294092084986
N            1.42362731439437       -2.00639344851248        0.02158118162085
C            0.35356558294930       -1.16243075987575        0.01016190888007
C            0.85565702169992        0.13281930064758       -0.02012017401770
C            0.00859590306796        1.28601525914513       -0.04360426752403
O            0.33833308851689        2.45026179030385       -0.08648092527187
N           -1.38171653721680        0.91200969403660       -0.01226769088091
C           -2.28056984696332        1.90553633969015       -0.01028754314038
C           -1.89433410080319       -0.41628936323888        0.01466916696964
O           -3.07574243016177       -0.62806361713312        0.03399794004528
N           -0.96304770012061       -1.45212577543965        0.02136804773304
C           -1.43908173426473       -2.82360947116958        0.04034394873180
H            3.62378819033327        1.25766269468868        0.92751902448769
H            3.90984193522351        0.99807597573604       -0.80297715662331
H            2.58135087479074        2.05686007055457       -0.26202597896005
H            3.54607817465224       -1.65111744433613       -0.00147951792811
H           -1.79681457486042        4.94792079286131        0.11720407590228
H           -1.92202999225103        2.92783090995388       -0.00972098956959
H           -3.32413829529569        1.65581384236761       -0.00478638663886
H           -1.12110330328834       -3.32414532015537        0.95520555702994
H           -1.07334960834855       -3.36366815866405       -0.83303033560010
H           -2.52732169628986       -2.79678867262290        0.01193574586489
H            1.39561838121379       -3.01559677583794        0.04231998122525
