  25
        -42.15933971
 C          3.2255957402        1.1524365627        0.0306603716
 N          2.2757465184        0.0732152206       -0.0018271180
 C          2.5481762465       -1.2265967616       -0.0643469541
 N          1.4013393749       -1.9449061401       -0.0689728189
 C          0.3542954488       -1.0668784953       -0.0043238407
 C          0.8990943356        0.2243832858        0.0376521684
 C          0.1201113219        1.4045879020        0.0341721835
 O          0.4793121911        2.5575779773        0.0938371167
 N         -1.3150240937        1.0946507389       -0.0703053809
 C         -2.1382138416        2.1409160881       -0.1675726676
 C         -1.7759013036       -0.1791686122        0.0035856563
 O         -3.0983385634       -0.3919683891        0.1108402236
 N         -0.9691440651       -1.2862119980        0.0114308720
 C         -1.5261249706       -2.6255059250        0.0213689507
 H          3.7263730696        1.1892935642        0.9996150273
 H          3.9747230268        1.0212932365       -0.7491028450
 H          2.6927510782        2.0901696466       -0.1218265482
 H          3.5310521897       -1.6505477001       -0.1042617200
 H         -1.6930507423        3.1070705314       -0.0921847498
 H         -3.1610889009        2.0375965082       -0.4733005568
 H         -3.5183986105        0.4288643446        0.4238413412
 H         -1.1620420047       -3.1729310348        0.8912087586
 H         -1.2508573902       -3.1540629063       -0.8917744513
 H         -2.6089142437       -2.5544764380        0.0739604229
 H          1.3445189538       -2.9509190416       -0.1065669277
