  25
        -42.09039898
 C          3.2167606019        1.1229682237        0.0171046296
 N          2.2632559157        0.0480207110       -0.0005352001
 C          2.5576139169       -1.2547865930       -0.0086295002
 N          1.3890984273       -1.9395095098       -0.0073074962
 C          0.3398092877       -1.0660420595        0.0011339126
 C          0.8973403699        0.2077906388        0.0062548249
 C          0.0701709277        1.3935187833       -0.0020480441
 O          0.4639309438        2.5363130157       -0.0145252310
 N         -1.2878766476        1.0678157145        0.0013569162
 C         -2.2400537728        2.1670989529       -0.0030091442
 C         -1.8586469838       -0.1939419362        0.0040652031
 O         -3.0487275116       -0.3547269214        0.0066237988
 N         -0.9840527113       -1.2959555046        0.0021278032
 C         -1.5390159765       -2.6330228591       -0.0012580862
 H          3.7183383346        1.1648364276        0.9857687019
 H          3.9695593071        0.9638471881       -0.7544942622
 H          2.6996472936        2.0661531119       -0.1555395363
 H          5.4281174951       -1.7856682485       -0.0194854349
 H         -1.6836368360        3.1020022023        0.0040327873
 H         -2.8709247510        2.1084668934       -0.8910308674
 H         -2.8850538920        2.1021418570        0.8742312010
 H         -1.2180304421       -3.1802270454        0.8857889728
 H         -1.2312902814       -3.1705490666       -0.8989572861
 H         -2.6243064840       -2.5419741257        0.0070376890
 H          1.3374968471       -2.9475224441       -0.0135932256
