72
 energy: 5.850631675604 xtb: 6.6.1 (8d0f1dd)
N           -1.52990614296263        2.41951130871243        2.45214840683306
C           -1.53136079029743        2.13128942580963        1.22204534923995
C           -2.74314015296235        2.05695116719448        0.33002156496667
C           -3.42388402822899        0.68365199417362        0.44477467475276
C           -4.27316208460913        0.20368388155214       -0.55794634621598
C           -4.74805585662084       -1.09342584149142       -0.56559522611293
O           -5.60821276333074       -1.61140277260400       -1.49280714869289
C           -6.14499459061799       -0.74870271075662       -2.46189531540242
C           -4.34274439259081       -1.99308747136625        0.44152137428596
O           -4.84822715279560       -3.25719500770899        0.34318719120398
C           -4.57499864716931       -4.16152063774403        1.37995403154842
C           -3.50941790481587       -1.52400128892638        1.43748546694467
C           -3.03205328976032       -0.21835720431813        1.41355328563935
C           -2.26024131018066        2.28851935940623       -1.14262870709991
C           -1.34812206429569        1.19279233382087       -1.72974410420309
C           -0.04427294373856        1.17218593313977       -1.02736430084556
N            0.55564700438068       -0.01313561957812       -0.60452855581879
C            1.92816858357297        0.00832789400228       -0.19545868595158
C            2.86384598450562       -0.55691331780633       -1.29108262651518
C            4.29744762317058       -0.44929285293152       -0.86749227393488
C            5.01004110460287        0.71534965459782       -1.07674708835571
C            6.31790422243933        0.83088282326031       -0.63565298030960
C            6.93527532661866       -0.21561234869429        0.02836214491138
O            8.21762004334996       -0.21772275674366        0.49381475976070
C            9.00310211129624        0.92772897432263        0.28821555379271
C            6.21188135792225       -1.40714250978885        0.25846845364866
O            6.89874022230521       -2.38849488669369        0.91132767279141
C            6.26222218733531       -3.61788585444523        1.13746340361354
C            4.90489741515082       -1.50400070352000       -0.18526354005647
C           -0.14831630296868       -1.26033702062809       -0.50754592421240
C           -3.75366271426561        3.18445291542341        0.70886990375530
C           -4.35604599831593        2.89628408080420        2.08013889495958
C           -3.24134151029780        4.72865865149727        0.54533572011959
H           -4.59408595473240        0.86005233080435       -1.34919205228127
H           -6.68411071801762        0.08761853697601       -2.01577292039301
H           -6.84826884280495       -1.35545527493372       -3.03026343078033
H           -5.36079407792354       -0.36067896938667       -3.12701084897148
H           -4.93946914358597       -3.80210876267994        2.34463109748909
H           -5.12300843438502       -5.06743864199001        1.12676781767030
H           -3.50134388622528       -4.38118164599712        1.45705451223951
H           -3.20139899134241       -2.17930489182873        2.23656268207161
H           -2.37629615209397        0.10168418031357        2.20389710684758
H           -3.11886216569860        2.40788014983264       -1.80499240676440
H           -1.71151292230497        3.22717992513240       -1.15945989559462
H           -1.88563550119246        0.23901300988142       -1.66410822649148
H           -1.16022357704502        1.40170304862298       -2.79391582659168
H           -0.59768292340187        2.05526168428233        0.64103089440261
H            0.64212776441432        1.99533324550285       -1.14962137463532
H            2.07361541157199       -0.55880809365626        0.73486390020179
H            2.22473223456421        1.03738190295124        0.01700765118422
H            2.68585012886981        0.02115522941580       -2.19869674906589
H            2.59398028501340       -1.59539684107452       -1.48038688871483
H            4.55550131517522        1.54862945020001       -1.58911502735313
H            6.84203396691562        1.75076980592280       -0.83188007493752
H            8.57921270006855        1.80761987299347        0.78405847405833
H            9.13487081398595        1.14131083566407       -0.77832511514817
H            9.96722566804151        0.70069938905830        0.73086623964821
H            7.00515555184716       -4.24061793188962        1.63724554056658
H            5.38295622022572       -3.50701819300606        1.78345329100361
H            5.95509592765034       -4.09501452013271        0.19899679565157
H            4.31687466899558       -2.39885889103055       -0.01987132960949
H           -0.39865509083914       -1.66636634525213       -1.49013186568190
H           -1.08802606053039       -1.13536224454438        0.02831596019611
H            0.45411181952274       -1.98812178991777        0.03616755233487
H           -4.59720265067759        3.02351798454774        0.01677960804366
H           -3.57642450514328        2.79731992610547        2.81502688815935
H           -4.96121820877805        1.98244594530652        2.13318901502369
H           -5.02805419026873        3.71132766882096        2.30603857240733
H           -2.43237432859534        4.87391280654622        1.24188357515426
H           -2.87970206466536        5.06746644992977       -0.43274749625999
H           -4.04293609974063        5.43123544236206        0.79921004144755
H           -0.58720852195595        2.47029411056041        2.83252312043968
