72
 energy: 91.316565197334 xtb: 6.6.1 (8d0f1dd)
N           -1.40193936696929        1.57469609585351        2.40429776873322
C           -1.47651063493442        2.05710178457754        1.22737704198592
C           -2.62612222254445        1.96236079233541        0.36744750962185
C           -3.80068202105943        0.77126902231752        0.63400149627754
C           -4.34759586234658        0.12279459850171       -0.56104024624215
C           -4.54822024540420       -1.22388467834559       -0.64664012135194
O           -5.09919137304470       -1.85933650860267       -1.73071239533410
C           -5.47718134032920       -1.09123855819844       -2.83935112836249
C           -4.24961381786641       -2.08442617971097        0.44022255479774
O           -4.51859553703023       -3.41352856397579        0.24221513988194
C           -4.35758034732713       -4.28579745393780        1.32479312206432
C           -3.71840072751846       -1.51079469770624        1.59698168630989
C           -3.46035020108286       -0.16216211580859        1.68402387732101
C           -2.32883213741126        2.26573914528036       -1.08264376178759
C           -1.49651151664431        1.14994755280099       -1.75715611163515
C           -0.10380269495318        1.08882084067742       -1.27222505158848
N            0.42135016721373        0.08260147815298       -0.54881024776521
C            1.82263693450527        0.09682332262429       -0.18294990757551
C            2.69786756227736       -0.57023385899329       -1.26996451143294
C            4.14313100499183       -0.46742286523981       -0.87961160473442
C            4.85889629440974        0.68555100430153       -1.13523769135184
C            6.18492789432108        0.80011788367498       -0.74326068500040
C            6.80195667022892       -0.22472391451025       -0.04475056280626
O            8.07827687854499       -0.21428428293883        0.42271682107812
C            8.85569896938752        0.94016082114012        0.23903390050379
C            6.08117099422930       -1.41509875346859        0.21068827195619
O            6.77940251766758       -2.38402287608139        0.86408924555280
C            6.15876704704534       -3.62460201585146        1.08476202139946
C            4.76444741863779       -1.51352119664058       -0.19976253282435
C           -0.34863311319977       -1.11685223648682       -0.30750700958703
C           -4.01680887471621        2.21709313716614        0.90438263237442
C           -4.23484828741753        2.73002863399107        2.29772711724175
C           -2.82543380019705        5.81473905643921        0.35115570002672
H           -4.68734980784089        0.72767371281455       -1.38498440528271
H           -6.27178867444056       -0.37770606796913       -2.57539229485570
H           -5.87242647229699       -1.80639982224766       -3.55630726965250
H           -4.64374378489840       -0.55070795637504       -3.29190038866974
H           -4.99707723959236       -4.00265536938348        2.17066406341652
H           -4.64865236784521       -5.25865397603711        0.93471924885393
H           -3.32073201021154       -4.35266321221365        1.66408396146984
H           -3.52742340760146       -2.13619515914195        2.45845295972463
H           -3.01793198405460        0.22321521711513        2.58491192200599
H           -3.25373989561420        2.39964591371799       -1.63900512262062
H           -1.75555564290752        3.19454371965223       -1.16949568993195
H           -2.00582474358089        0.20313266024650       -1.58219459054710
H           -1.45834232428697        1.38480890951219       -2.83432490882962
H           -0.62439091557525        2.55542438716892        0.72566614326716
H            0.54517330628572        1.92236660314049       -1.48060182938463
H            1.95136045083326       -0.43256791037036        0.75884236475692
H            2.17862568865672        1.12044836680315       -0.02790837880552
H            2.50666881776000       -0.05231011132075       -2.20829397520767
H            2.40282492375663       -1.61477058092099       -1.38140253476520
H            4.38784522864458        1.51154458141923       -1.64724533965717
H            6.72041804927095        1.70393133686108       -0.98744133242450
H            8.40992506728193        1.81633434601394        0.71933728382603
H            9.02902623073192        1.14997087273630       -0.82058237668972
H            9.79948147782645        0.72431565384077        0.73923462492284
H            6.90155102958597       -4.23809118364280        1.59185429956632
H            5.27140230082625       -3.53197395484220        1.71525421927346
H            5.88693358699327       -4.09797427138612        0.13258198961715
H            4.18196263413187       -2.38835310297133        0.04785821020705
H           -0.69072242341685       -1.52954000978744       -1.26227454820298
H           -1.22614331753970       -0.88888120920250        0.31224341548136
H            0.26115378127951       -1.86300000311259        0.18532887462345
H           -4.69407346001259        2.63457191438944        0.18676050158838
H           -3.43669895823662        2.40137402551832        2.95335400484288
H           -5.18671482186576        2.34516735121303        2.66125670148946
H           -4.28147484290927        3.82628218700041        2.36375722443300
H           -2.16367802173222        5.39763927214214        1.07236840286282
H           -2.43186617905380        6.03943341922942       -0.60080246031668
H           -3.68268460216037        6.32363957929690        0.71463740645247
H           -0.55072967755759        1.83257463461357        2.90366582575767
