72
 energy: 92.279448819774 xtb: 6.6.1 (8d0f1dd)
N           -1.35711949466704        1.58364872966402        2.40253053998562
C           -1.44790825272730        2.04497102120221        1.20995050804921
C           -2.60179837627741        1.98238861601482        0.37320203003997
C           -3.80839662657096        0.73382972586003        0.64450000468372
C           -4.35047944877533        0.11602074282423       -0.55257976070510
C           -4.56630512572001       -1.23260246608590       -0.65171957781815
O           -5.09193195087179       -1.86589968937735       -1.73526530217678
C           -5.49121469129939       -1.10445826466426       -2.83838464061470
C           -4.24275317548295       -2.08783387454058        0.43024038574476
O           -4.49850400271425       -3.41720771024905        0.23818520326065
C           -4.36510989317484       -4.29640301616479        1.32023836387819
C           -3.67732737163931       -1.52853582486121        1.57316012962437
C           -3.45284521410393       -0.18197869060113        1.69599704233270
C           -2.32584604123065        2.26598962514138       -1.08580282710369
C           -1.49235346212628        1.14673498350235       -1.73214306598993
C           -0.11219063959273        1.12226158365242       -1.19625182136476
N            0.43460534963624        0.07785619203777       -0.56337344878872
C            1.82404472680212        0.09564556854219       -0.17554745755192
C            2.69109494419841       -0.57059779027698       -1.25824866548376
C            4.14022705115844       -0.46817781549043       -0.88189168303258
C            4.85841442605196        0.68125161088940       -1.15008218061303
C            6.18063004738224        0.80350899316021       -0.74202762603880
C            6.80315383816115       -0.22708878589050       -0.06100745195300
O            8.07664229561128       -0.21435950293483        0.41733322967044
C            8.85503224274556        0.94155016266569        0.24034221226000
C            6.07997654514110       -1.41291318300185        0.20647295762902
O            6.77731158271737       -2.37944058590742        0.85841650190238
C            6.16144477158038       -3.62176134543814        1.07992844790497
C            4.76056891165494       -1.51026101517456       -0.19568225036358
C           -0.34509104104138       -1.10521728074970       -0.32958627754981
C           -4.00576588583431        2.16136758646371        0.90389702838327
C           -4.17855880766172        2.73635471341905        2.27514500878869
C           -2.76717366105228        5.95499520153361        0.36617580369584
H           -4.66205844398603        0.74475577629497       -1.37195137682223
H           -6.25083170364496       -0.36192721886780       -2.58374915343043
H           -5.93838774783898       -1.80079552767734       -3.54716399185647
H           -4.62621300509129       -0.66096275494233       -3.32960505733347
H           -4.99159619908376       -3.99676928612886        2.16659481771692
H           -4.69160038253994       -5.26712015148440        0.95222503135604
H           -3.32299459089443       -4.40553082266450        1.62738308988459
H           -3.46365195869969       -2.17309673378746        2.40979489579887
H           -3.06593312325211        0.21543573441348        2.62098520384423
H           -3.25203784256880        2.36035291057759       -1.63838392696971
H           -1.76367857095605        3.20067203644367       -1.17031188288899
H           -2.00745666399000        0.20040051892469       -1.60104003839867
H           -1.45919187623944        1.34153843795163       -2.80936414413478
H           -0.58503988164356        2.54886547551988        0.69956586748939
H            0.54555147528716        1.93632083277116       -1.45182475106266
H            1.96969445288532       -0.43441257847302        0.77276777927847
H            2.16331627226667        1.12573057958723       -0.03948846621902
H            2.50467509699182       -0.05554747282152       -2.20252539463854
H            2.37936912394001       -1.61122095125435       -1.36126211288798
H            4.38741605531324        1.51188897621078       -1.65305528787378
H            6.71388804773375        1.71578584492401       -0.95749036373804
H            8.38560239533327        1.81340598005209        0.71188401576566
H            9.04117986791526        1.14923426679858       -0.81593253992428
H            9.80208491709371        0.72768413787934        0.73374892679573
H            6.90749854940100       -4.23537411440838        1.58470036990510
H            5.27984161602247       -3.52916455379574        1.72387475491391
H            5.87577457962550       -4.10147967907305        0.13796270538277
H            4.19157164114232       -2.40099210046493        0.02047619167391
H           -0.69000061313820       -1.50847358682669       -1.28517367464218
H           -1.21959280476336       -0.89249500246353        0.29511409501112
H            0.26016670386669       -1.85990159153860        0.16658242848704
H           -4.69767895863670        2.61089473958088        0.21981925792758
H           -3.36968480414922        2.40664382265071        2.91052128658628
H           -5.11142343090236        2.34320517453779        2.66951348483627
H           -4.25944554820105        3.81545767530847        2.24882597741691
H           -2.22081763877937        5.32581949515811        1.02806811366395
H           -2.37529940962356        6.16236029487288       -0.59626766026357
H           -3.64238360341929        6.45052260910177        0.70701502199579
H           -0.57827806472371        1.94846683333113        2.94670611033797
