72
 energy: 103.353243088154 xtb: 6.6.1 (8d0f1dd)
N           -1.44637873820657        1.76744941042270        2.44206258508577
C           -1.47337539348466        2.09450452480288        1.21513042166419
C           -2.64889760778016        1.92796670684502        0.34822233361637
C           -3.63450320222182        0.77162635735728        0.58336513612042
C           -4.27477445764201        0.14256822121530       -0.56391645491121
C           -4.56075060391491       -1.19225952571292       -0.62974816001758
O           -5.19878272396597       -1.79268055776997       -1.68657714637992
C           -5.67454277923216       -0.98351111934943       -2.73517729242390
C           -4.24460643579300       -2.05746121432282        0.44979943113811
O           -4.55367984160778       -3.37700047253063        0.26102094496588
C           -4.40126029426828       -4.25294609404918        1.34247894312997
C           -3.68852100221902       -1.48403975690011        1.59161962471577
C           -3.32813076238757       -0.15707270340964        1.63322232423390
C           -2.33790069813501        2.27036450029993       -1.09583619061616
C           -1.49817766132828        1.16692627866180       -1.77407932066217
C           -0.10742150440675        1.08727087854552       -1.28163939652329
N            0.41623336108811        0.06651245769691       -0.56686282399781
C            1.81070261504596        0.09177415633332       -0.22326298094179
C            2.72729278921968       -0.57354326510626       -1.28559621562749
C            4.17702681758650       -0.46713155194985       -0.88029635017045
C            4.88394953579383        0.69348619784185       -1.11529654742601
C            6.19495446663962        0.81353213531066       -0.68994113373483
C            6.82718216813568       -0.22373879550368       -0.02285797637864
O            8.10973846429416       -0.21436518295696        0.44118858349431
C            8.88462427521281        0.93921105662296        0.23899301456884
C            6.11433432485107       -1.41902135436548        0.22136924317118
O            6.80514399710029       -2.39364642803044        0.87269677196342
C            6.17052323365547       -3.62556592051282        1.10743349311859
C            4.79816068029453       -1.51631800192744       -0.20161403442764
C           -0.31323628296445       -1.14727050661138       -0.31721737827975
C           -3.94799688786040        2.45894618664710        0.85878672605921
C           -4.20257319934700        2.88544571580148        2.26887636842083
C           -2.92091486587427        5.43929947193473        0.42714588991862
H           -4.58039158150895        0.77089709314957       -1.38157538360173
H           -6.37925016161397       -0.22111668915741       -2.41100535960492
H           -6.22148683735120       -1.65082165548179       -3.39964101218175
H           -4.81624622288036       -0.52355144705653       -3.26799627078147
H           -4.99886396796390       -3.95993415351472        2.20293840124783
H           -4.79489757526109       -5.20562324949733        0.99198400139104
H           -3.34073939908691       -4.34653596152192        1.65624421925500
H           -3.46872977140168       -2.10734606675370        2.44642394093404
H           -2.83574047966808        0.22248980459651        2.50886549410278
H           -3.25688653382795        2.42802961448113       -1.66207232619031
H           -1.78977956093078        3.21284908113666       -1.10280159314670
H           -2.01439196303544        0.21499956833184       -1.65122329827129
H           -1.43121937360742        1.41588137208147       -2.83913375903428
H           -0.64268161708685        2.62055991839275        0.72775854256192
H            0.57562877611526        1.90586608384327       -1.47354119794403
H            1.93898283089341       -0.42013122471988        0.73316370696821
H            2.13430450872629        1.13005588220224       -0.09813014890645
H            2.55153046389673       -0.07138073269586       -2.23964194986724
H            2.44184113646735       -1.61980936650214       -1.40557472751718
H            4.43571861173464        1.52391280501908       -1.63435536320788
H            6.71353087855346        1.73498735580977       -0.89729960916080
H            8.44734365152135        1.81286113839713        0.73275430886578
H            9.01524825223736        1.15392444345480       -0.82744011300398
H            9.83906579564519        0.72107774592888        0.69100139626758
H            6.92148553243600       -4.24284605057856        1.60398146382844
H            5.29170751625001       -3.51739339379659        1.75782502086231
H            5.84941584904440       -4.10770659218445        0.17266247073964
H            4.20713261674438       -2.39949508747630        0.01115503513561
H           -0.64473943929053       -1.63503479201875       -1.22535721981735
H           -1.20783022300419       -0.93309511500982        0.25154237472735
H            0.28835181192866       -1.81526881857392        0.28440055854171
H           -4.68726605773232        2.75811354787073        0.13162482997299
H           -3.38990261473485        2.50713702591701        2.88067348717362
H           -5.11993245429402        2.38451170297805        2.49626831450306
H           -4.38214340154518        3.95117766067124        2.49630887781762
H           -2.17982501968921        5.20926826845937        1.17144406339661
H           -2.54973676511691        5.69920685118026       -0.52957155927285
H           -3.74935420428624        5.99325872233528        0.78571701010891
H           -0.54854945640533        1.89229512903342        2.90423175596074
