72
 energy: 92.387498750118 xtb: 6.6.1 (8d0f1dd)
N           -1.36418799601729        1.56627090088472        2.39068707944555
C           -1.45774473273584        2.04937163094258        1.21044512718464
C           -2.61230530700926        1.98113173436162        0.37259821773012
C           -3.81738645816410        0.75011910172426        0.64243731040436
C           -4.35178127531063        0.11913958988611       -0.55720336352706
C           -4.55527330617748       -1.22855169607393       -0.64797718491846
O           -5.07189745047447       -1.85663211623376       -1.73971132990832
C           -5.48403193655160       -1.08600486268609       -2.83408565374680
C           -4.25062233274608       -2.08605228198478        0.43749751748817
O           -4.49710813431601       -3.41553275560685        0.23930513792208
C           -4.36192436114411       -4.29087811600205        1.32302837908441
C           -3.69842905163677       -1.51813047605789        1.58671002711016
C           -3.45371193521478       -0.17216656725209        1.68569518998215
C           -2.32912742966145        2.26662570215556       -1.08451483280279
C           -1.49746240485915        1.14462406065296       -1.73970110187413
C           -0.11119792902440        1.10023391543444       -1.23519309970098
N            0.42920856924384        0.07468454013600       -0.56180563275182
C            1.82538362465041        0.09591008053091       -0.17220898775036
C            2.69264550562447       -0.57010687139153       -1.26169634682853
C            4.13945094993826       -0.46890806226095       -0.88336477073589
C            4.85954042485703        0.68073690130762       -1.14678019015793
C            6.18500250988705        0.79790680569373       -0.74981328594595
C            6.80384294034137       -0.22685788170986       -0.05370109722473
O            8.07903483450283       -0.21480728436510        0.42354158404231
C            8.85862862653571        0.93947222301666        0.24242585404641
C            6.07922989123781       -1.41481498791425        0.20594136156411
O            6.77836615286504       -2.38365849464691        0.85722017786696
C            6.16055079376459       -3.62459221996094        1.08120861708615
C            4.76273808781218       -1.51377687313386       -0.20230938880196
C           -0.34852699406290       -1.11357228580946       -0.32225815378671
C           -4.01293185820711        2.17806946306864        0.91150850002288
C           -4.21144476588751        2.73068288798356        2.29224650292634
C           -2.79700401769951        5.88422414180168        0.35592854060150
H           -4.68027278351270        0.73291807454626       -1.38005274747351
H           -6.25522673229742       -0.35153677282497       -2.55607952320187
H           -5.87337881129280       -1.80159325595835       -3.55397602364321
H           -4.63939023214226       -0.58266831610019       -3.30936479360533
H           -4.99821885283099       -4.00237641353805        2.16550190610046
H           -4.66826945938017       -5.26336017849806        0.94904979981984
H           -3.32219961650134       -4.38313878793814        1.64492262227906
H           -3.49347888658154       -2.15115740982098        2.43552781548931
H           -3.02228664231122        0.21545012762901        2.59217348546945
H           -3.25380599961542        2.37520696914102       -1.63884954204299
H           -1.75513195030111        3.19453373631979       -1.17669691565696
H           -2.00929917375382        0.19906505894438       -1.59072874549726
H           -1.46164477046012        1.35703242857368       -2.81786618124001
H           -0.58314829043141        2.51671687982236        0.68335674043746
H            0.54573341929156        1.91418178861618       -1.49350268628877
H            1.96403965584319       -0.43662196845431        0.77128270495788
H            2.17794754875208        1.12125881292320       -0.02399770082289
H            2.49590789622543       -0.05005506162218       -2.19804582444811
H            2.38612454150771       -1.61196101860938       -1.36743007465123
H            4.39310178447520        1.51473159874722       -1.64772242782266
H            6.71745620185123        1.70872794341481       -0.97445525898002
H            8.39804973309381        1.81485219749024        0.71426447912290
H            9.04245169047224        1.14683230914595       -0.81458198532691
H            9.79921717024674        0.72610759670754        0.74675281625072
H            6.90361910560056       -4.23589182403493        1.59247321921852
H            5.27307216864706       -3.53162009590821        1.71363476289711
H            5.88650998769261       -4.10004796319341        0.13189521253362
H            4.18672178878535       -2.39543106172157        0.03323878741862
H           -0.69493323649180       -1.49437368516837       -1.28901053305064
H           -1.22430596390898       -0.91041608113998        0.30150008476700
H            0.25817602433777       -1.87700472893295        0.15009232742146
H           -4.69941386463537        2.61404123683987        0.21800940690547
H           -3.40702136436882        2.41797944041757        2.94459349110334
H           -5.15490715245656        2.34420840412517        2.69342106791846
H           -4.27662099860571        3.81979334696635        2.29789175656347
H           -2.18977271885027        5.35612680874698        1.05305876769014
H           -2.40357059458116        6.10037984740570       -0.60033889293275
H           -3.66168416243084        6.38727712983456        0.71080041314665
H           -0.56473650539861        1.89935480330332        2.92589543215751
