72
 energy: 99.625715964025 xtb: 6.6.1 (8d0f1dd)
N           -1.44354807746177        1.68232357014180        2.43623293080968
C           -1.48272769112368        2.08638024132843        1.23000286422934
C           -2.64484779005188        1.93009938695902        0.35084915043697
C           -3.67506285473328        0.79232063748436        0.60400425063675
C           -4.29216399941939        0.14427235620224       -0.55892496659882
C           -4.54153921960036       -1.19686001450766       -0.63748611750626
O           -5.15078109060760       -1.80928292342785       -1.70699106443301
C           -5.62047656961088       -1.00890681926507       -2.76506620710555
C           -4.23965630172269       -2.06283630814044        0.44685534649176
O           -4.52274502020448       -3.38525410170852        0.25297210307106
C           -4.38481853712888       -4.26269335809064        1.33493460998816
C           -3.70911926704564       -1.48014603644551        1.59904661098894
C           -3.36108006894993       -0.15177245390420        1.65359190109932
C           -2.33181683305375        2.27015775553019       -1.09115194405869
C           -1.50188096365281        1.16038215906649       -1.77912661191884
C           -0.10278245484707        1.07037559944422       -1.31445854116901
N            0.40886043393428        0.08191465999135       -0.54760775040157
C            1.80961368727497        0.09834013162318       -0.21813057352107
C            2.71458947154587       -0.57379193639242       -1.28279431453490
C            4.16559053007057       -0.46793041643964       -0.88140098836480
C            4.87311117857809        0.69234246154556       -1.11753759756369
C            6.18683719282722        0.81298404827063       -0.69546354478787
C            6.81779664465982       -0.22384311291449       -0.02783341710870
O            8.10109323895944       -0.21487685553027        0.43567833870135
C            8.87754202698900        0.93895247543044        0.23651000728998
C            6.10463629412142       -1.41813803462329        0.21874108423118
O            6.79705604512195       -2.39255057201754        0.86863393330995
C            6.16474863421611       -3.62502386691580        1.10511671008099
C            4.78719565042861       -1.51502037340223       -0.20025930297339
C           -0.32136361150818       -1.13816132171902       -0.31134184689626
C           -3.97581444795213        2.38591942213659        0.87057395128883
C           -4.21696622442640        2.86332810646006        2.27746200036213
C           -2.89922227851997        5.51951401601776        0.40924831789700
H           -4.60672481702635        0.76632497572607       -1.37882785758640
H           -6.34301723472861       -0.25621454322648       -2.45554849359739
H           -6.14890086356684       -1.68512385984024       -3.43621469975048
H           -4.75621335573940       -0.54169279887018       -3.28399899080721
H           -4.99840814801938       -3.97787556768491        2.18512028065637
H           -4.76185118257663       -5.21944571462518        0.97551349756547
H           -3.33407552621629       -4.34401942462855        1.67209352769859
H           -3.50124564055962       -2.09965339623853        2.46169858830146
H           -2.88915121387580        0.23234326687821        2.54024198404437
H           -3.24857414206564        2.42550270535282       -1.65761911721085
H           -1.78142463289089        3.21320352750112       -1.11455553843647
H           -2.01498685666316        0.21078517878200       -1.62912141981860
H           -1.46130328528767        1.41029818605511       -2.84405125249123
H           -0.67812696423417        2.68338064654905        0.77347573203861
H            0.55961187830361        1.90248610347877       -1.50271344111347
H            1.93640452249748       -0.40807093483053        0.74004058896993
H            2.12540173194209        1.13559444049178       -0.10194980134080
H            2.53650547991815       -0.07203628955262       -2.23746207069070
H            2.42596807487100       -1.62045458622734       -1.39735300191953
H            4.42333137776873        1.52154056771252       -1.63794043729563
H            6.71121403011484        1.72842520013203       -0.91322481094725
H            8.43551044741088        1.81175182335381        0.72978265090587
H            9.00345895298918        1.15691267156309       -0.83031093120488
H            9.83906494988873        0.72028514888822        0.68761428132053
H            6.91531467477517       -4.24238924229231        1.60105401981928
H            5.29121233894189       -3.51640991609740        1.75988007863280
H            5.84937881914955       -4.10770892574411        0.17097687512522
H            4.19519143136963       -2.39085002990387        0.03376206969148
H           -0.62324893049951       -1.61619027743870       -1.24438197764831
H           -1.21517335493798       -0.92088074788692        0.26258345888435
H            0.28200910023812       -1.81908369527657        0.28047885541924
H           -4.70000393291486        2.72236701367628        0.13874795384083
H           -3.41766689733521        2.46821725781740        2.89014692347724
H           -5.15319987366898        2.40705693062904        2.52617308186033
H           -4.32328892940768        3.95044921140608        2.50100389708204
H           -2.17190598805326        5.25552194334734        1.15374236804538
H           -2.52427872917790        5.76919482383257       -0.54691751600236
H           -3.73508297482331        6.06031791490750        0.76775741969995
H           -0.55229761050464        1.82586559528207        2.90652315228347
