72
 energy: 15.603622505073 xtb: 6.6.1 (8d0f1dd)
N           -1.51239671515126        2.25628304764181        2.47388552914630
C           -1.51144767867009        2.13988744916828        1.21266340062277
C           -2.74182054599288        2.04277665228935        0.34922468843475
C           -3.45886011258518        0.68529200044285        0.48359632822288
C           -4.25492376390662        0.18286246198158       -0.55408997570367
C           -4.70717266100386       -1.12165576671138       -0.57920419153248
O           -5.52256975367668       -1.65758653041353       -1.54007278787790
C           -6.04408160929534       -0.80418101567508       -2.52677711341676
C           -4.32051447330557       -2.01185634985573        0.44344453675393
O           -4.78750008370741       -3.29026908977426        0.32116085890885
C           -4.53705289165806       -4.18657096992778        1.36977802434881
C           -3.54823712001009       -1.51840831339890        1.47743390113220
C           -3.08995398857265       -0.20602350962223        1.46729724171886
C           -2.28856604166914        2.28428475936561       -1.13238045829573
C           -1.38920397150253        1.19401343087663       -1.75429098788394
C           -0.06859883509030        1.16754097138443       -1.09148155600750
N            0.52299975695747        0.00362334276334       -0.62415471855509
C            1.89852543343751        0.03151312590989       -0.20790848542562
C            2.83387011413921       -0.56004898995993       -1.29253157104882
C            4.27136117689423       -0.45474714484069       -0.87595255074434
C            4.98251901474125        0.70981303037625       -1.08824745887275
C            6.29014581329703        0.82661638507307       -0.64899463612858
C            6.91024771020467       -0.21788192578785        0.01680580062450
O            8.19342305392154       -0.21825890495710        0.48169286805264
C            8.97652876497062        0.92860221123537        0.27607982314100
C            6.18831591621209       -1.40981226758742        0.24988408843993
O            6.87702999147183       -2.39009750222659        0.90303956981310
C            6.24059689388443       -3.61910101685804        1.13115922651344
C            4.87967466915356       -1.50885398305514       -0.19252672048775
C           -0.18597231820733       -1.23937586542156       -0.46304249878955
C           -3.74296037440324        3.16849769035725        0.73945493364087
C           -4.30719916460826        2.93605165545876        2.13188582627644
C           -3.18211165129203        4.80914129334007        0.53995926967341
H           -4.56234965429512        0.82752717098863       -1.35984680894945
H           -6.61882781519053        0.01858029989175       -2.10333094156040
H           -6.71513827760828       -1.42342223935980       -3.12144261717665
H           -5.24014070489291       -0.39891104156037       -3.16048617636436
H           -4.95634430435007       -3.84134450477741        2.31622328762692
H           -5.05117207801730       -5.10622876406545        1.09438718110467
H           -3.45966443186457       -4.37403286338382        1.49740933211191
H           -3.25956108833487       -2.16438724359527        2.29094512847973
H           -2.47199301676719        0.13157608711458        2.27986383817724
H           -3.15796460798917        2.41620666295108       -1.77691104677457
H           -1.74448418871453        3.22604028627321       -1.14811655920335
H           -1.92367903091681        0.23573476283659       -1.66866070526266
H           -1.22514900952890        1.40839543701846       -2.82208674340952
H           -0.58097308362942        2.23692289394549        0.62811239782853
H            0.62888300835702        1.98661928037820       -1.22990539291506
H            2.04529675449283       -0.52045897119909        0.73072814754564
H            2.19631642423213        1.06266572724524       -0.01752077993656
H            2.65563159160531        0.00172818102259       -2.21051064800037
H            2.55898996682461       -1.60070633946582       -1.46509476230866
H            4.52861514051452        1.54370583201095       -1.59937449831785
H            6.80901755713077        1.74796093696915       -0.84911096633349
H            8.55017707607262        1.80749317151906        0.77119234534851
H            9.10816443244041        1.14211318374016       -0.79055753114203
H            9.93914926511414        0.70507531974698        0.72006246464738
H            6.98492521605971       -4.24177453038404        1.63027517986633
H            5.36082037783150       -3.50705415158249        1.77719150704969
H            5.92906962156261       -4.09589230030715        0.19323935373790
H            4.28501626772314       -2.40276284830469       -0.02600899065915
H           -0.46669345010005       -1.67627171406933       -1.42137983142762
H           -1.11477981549273       -1.09024860948809        0.08219711538508
H            0.41275984272246       -1.95778168358546        0.09732850629715
H           -4.59667485220623        3.03182323340372        0.07865494302012
H           -3.51489107347825        2.74786526143082        2.83786340380381
H           -4.99595467213924        2.08319379649856        2.18697277653167
H           -4.90040664947720        3.80217940493500        2.37876569881621
H           -2.36929691792060        4.94018805595132        1.23271533195699
H           -2.81286771590546        5.17228148495558       -0.43238843819667
H           -3.96990387110924        5.52826755027171        0.79736109191801
H           -0.57587671186892        2.34739998503825        2.85980598627679
