72
 energy: -5.273056097164 xtb: 6.6.1 (8d0f1dd)
N           -1.50671354830750        2.71231651754512        2.28680190851383
C           -1.54811644423535        2.15069330243931        1.16351454324523
C           -2.74577628516405        2.06489676100459        0.26157655694441
C           -3.33567872029784        0.65880239337258        0.35012885133924
C           -4.30036422801949        0.23970956746030       -0.56897111950016
C           -4.82941215997092       -1.03588752538724       -0.53671626765746
O           -5.77768410862388       -1.51395855816131       -1.39056870868838
C           -6.34582260008408       -0.63690505587024       -2.32852351153544
C           -4.38729541804643       -1.95251277718931        0.44235945979599
O           -4.96376357515674       -3.18597917214263        0.39571368176025
C           -4.64582792623609       -4.11237534224466        1.40163478604597
C           -3.43857446928060       -1.53846132379930        1.35610330637159
C           -2.91482846888990       -0.25092698129569        1.30333972831818
C           -2.20696219101862        2.29939767506793       -1.17719390546923
C           -1.27777703514604        1.18081653660211       -1.67865250068522
C           -0.00162057173738        1.13327659243309       -0.92140737162471
N            0.61685512321869       -0.04394169602490       -0.55084910463867
C            1.98830832666312       -0.02663846409168       -0.16362018874984
C            2.92042058177135       -0.54494159494406       -1.28129771415700
C            4.34647955289064       -0.43675428192080       -0.84329794303271
C            5.06216292744241        0.72782962882597       -1.04821095350803
C            6.37232503961536        0.84016679450631       -0.60862512738105
C            6.98442964806485       -0.21020174156860        0.05171578973380
O            8.26402948028657       -0.21265307594824        0.52030800823415
C            9.05545590682144        0.92852070778915        0.31314035400763
C            6.25824479183021       -1.40192585641607        0.27579834777947
O            6.94188381171516       -2.38464329472747        0.92672761334960
C            6.30499952125526       -3.61546237541240        1.14915161189366
C            4.95309342985105       -1.49569383028449       -0.16722750816780
C           -0.07201311698140       -1.29730633379740       -0.59536071353056
C           -3.84421112254834        3.10980905425469        0.60767823981718
C           -4.46583333089107        2.80122192685973        1.97068963095180
C           -3.36344396511685        4.57153215491609        0.54559721338002
H           -4.64721554041368        0.92820598658479       -1.32209601832460
H           -6.81591081866754        0.22506847830812       -1.84585285463646
H           -7.10891871318241       -1.21923315104233       -2.84213582524162
H           -5.60578838516333       -0.28684840887530       -3.05734718606414
H           -4.89414029918357       -3.73176954661532        2.39696917241758
H           -5.25818583396435       -4.98804705767717        1.19328781615474
H           -3.58742231347010       -4.39494083816175        1.37490002632302
H           -3.09530483014129       -2.21069541741260        2.12668353382768
H           -2.18994855434751        0.03884803472173        2.04719142617345
H           -3.04330014617754        2.39040833318529       -1.87143450453145
H           -1.66005622093789        3.24271000221389       -1.19445447460591
H           -1.81747140386072        0.23454629228937       -1.63449749033315
H           -1.03944748357157        1.38319040800316       -2.73084817825011
H           -0.66129040093519        1.72411244792031        0.64917198358611
H            0.64675506194456        1.99037648293570       -0.98045803323851
H            2.11444496213424       -0.64364507378999        0.73277500209964
H            2.28488199134207        0.99448662167536        0.09061976064458
H            2.74980853735254        0.05802764905620       -2.17480330532045
H            2.66297101821365       -1.58024700921934       -1.50665272496623
H            4.60753321705950        1.55902794683968       -1.56612648454910
H            6.90735813628877        1.75656438079522       -0.79756126195794
H            8.63628611421048        1.81008751119438        0.81025646797457
H            9.18742583126596        1.14178323883788       -0.75319029094418
H           10.02187644597396        0.69430790678340        0.75478805674380
H            7.04496699326703       -4.23805168297657        1.65045336508761
H            5.42675412398735       -3.50764180891226        1.79551854704911
H            6.00678981514129       -4.09393154346424        0.20960978990256
H            4.38408627851789       -2.39982709466520       -0.00829886081888
H           -0.25649943199693       -1.63104970887484       -1.62188573061340
H           -1.03416053836938       -1.22259787593714       -0.08248219205825
H            0.53554794183864       -2.04322841928405       -0.08870916890392
H           -4.63856462730621        2.96460780384050       -0.13916578235918
H           -3.71985257963133        2.88322157169966        2.75019543813548
H           -4.89174154873841        1.79931352960095        2.00949588233266
H           -5.26554658439870        3.50980959991885        2.16090449076952
H           -2.56620162050678        4.72747225084859        1.26409537893585
H           -3.00782132624721        4.86812176094479       -0.43911056994681
H           -4.18749099883463        5.23460235566306        0.80358283065815
H           -0.59723598964171        2.70988867930473        2.74605168160556
