72
 energy: 60.773870079532 xtb: 6.6.1 (8d0f1dd)
N           -1.48704378750485        1.95339252562607        2.48162684347328
C           -1.50315043458684        2.09151289272099        1.22191117036446
C           -2.73667757678875        1.97356616735239        0.36675667318973
C           -3.47660527009050        0.64016506797481        0.50154019857945
C           -4.22645957644499        0.13528548090612       -0.56589322125116
C           -4.62415322851277       -1.17798034389459       -0.60898076031218
O           -5.34349523889704       -1.73852553366567       -1.62279346538581
C           -5.83472841634544       -0.90826916305125       -2.64800633814599
C           -4.27108894109720       -2.04371129397146        0.44823259603340
O           -4.65258146325809       -3.33879545097770        0.28791979774735
C           -4.46219696557093       -4.22541092150421        1.35628376929728
C           -3.63200085333847       -1.51241820254677        1.54872824282024
C           -3.20650738664405       -0.19225563136022        1.55774818933693
C           -2.32912416759020        2.26825694688527       -1.10371041040012
C           -1.46014205671657        1.17760265239971       -1.76500496343281
C           -0.10019416590174        1.12783184193434       -1.19655359095573
N            0.45542855662200        0.02912124474907       -0.59732827638428
C            1.84245757567301        0.06690428178933       -0.22699590576257
C            2.77369151168063       -0.56825103711671       -1.29276846049973
C            4.21617861356604       -0.46403631888604       -0.88142544855294
C            4.92507441330072        0.69860450858695       -1.10470370766781
C            6.23423873627528        0.81693187794699       -0.67496138990475
C            6.86141328913288       -0.22223574888012       -0.00710444748203
O            8.14496525787153       -0.21622422499185        0.45927042481064
C            8.92339394851865        0.93341628463360        0.25420232403744
C            6.14369575604161       -1.41583901395632        0.23271707355703
O            6.83475147238136       -2.39167505604351        0.88680532987573
C            6.19871588457431       -3.62202706964256        1.11849965341141
C            4.83113542423009       -1.51716468546917       -0.20122156151672
C           -0.26597780684255       -1.19032338496284       -0.37862593789685
C           -3.79224845790116        2.98951683428415        0.78879392966137
C           -4.21280465132387        2.97012873765708        2.22344112709297
C           -3.04881176731616        5.07349363800730        0.48983520708005
H           -4.51297943409372        0.77524505493292       -1.37989897569534
H           -6.48417753937286       -0.11667582731530       -2.28051561511372
H           -6.43711875293094       -1.55343456587925       -3.28709266034515
H           -4.99632326781951       -0.47517894580129       -3.22167788722975
H           -4.99197694719243       -3.90664165244032        2.25235500258522
H           -4.90635735261607       -5.16585733008666        1.03568337023279
H           -3.39318463003823       -4.35429530451824        1.59505847431157
H           -3.38231005448671       -2.13832262264622        2.38709781300223
H           -2.67009335373851        0.18109622768835        2.41140760456511
H           -3.21923438607134        2.42600543926861       -1.71028083364990
H           -1.78286775588898        3.20769761556851       -1.10999880923384
H           -1.99195194773199        0.21944271182770       -1.68407485884364
H           -1.34911577464879        1.41759078976385       -2.84154135256384
H           -0.61440379649425        2.39460576563504        0.68431860969705
H            0.59884165579765        1.94408150729947       -1.37558254878509
H            1.98555831737898       -0.45931606441092        0.72485143215354
H            2.14306617036477        1.10902083279448       -0.08519345199752
H            2.59892839409118       -0.04255452506462       -2.23362837306459
H            2.49147089974921       -1.61260971066191       -1.43199831893029
H            4.47550584011778        1.53118649144034       -1.62066467674894
H            6.74330565745882        1.74036673393422       -0.88409356569586
H            8.49185321369785        1.80991929008068        0.74856894531169
H            9.05462407273981        1.14721445841379       -0.81237286420540
H            9.88167921740530        0.71199719614963        0.70174553345607
H            6.94648620979688       -4.24276084276741        1.61647489792664
H            5.31794745614223       -3.51134257140397        1.76617895828967
H            5.87933904061205       -4.10087661727502        0.18195422495365
H            4.23299120458000       -2.40929065014175       -0.02835841037261
H           -0.60413892623240       -1.67548355310981       -1.28938940208905
H           -1.17006293734441       -0.99930060932231        0.18735966377354
H            0.34001551582523       -1.87590615661988        0.20355496583172
H           -4.64547383295050        2.90342697615031        0.12850172527302
H           -3.41331402952306        2.62386344575260        2.86648637968735
H           -5.06048600918935        2.27704849219068        2.33353650344735
H           -4.61476604838720        3.93411284352689        2.49165143937617
H           -2.24919604259714        5.08376009821872        1.20782246881400
H           -2.66249372839152        5.42983091093281       -0.46514895084914
H           -3.82953879041498        5.76221041552948        0.79004248026206
H           -0.56459040628621        2.08066134012555        2.89435874890074
