72
 energy: 87.275550029263 xtb: 6.6.1 (8d0f1dd)
N           -1.41625261571534        1.64813267854971        2.43906949538823
C           -1.45984405072388        2.03956077777033        1.22596412974756
C           -2.61707518364662        1.92819985113970        0.36643591332552
C           -3.72123089506173        0.73714737512293        0.62817255963825
C           -4.30123816761078        0.12287639061996       -0.55908579518528
C           -4.52168913479539       -1.22060993679048       -0.65324185555136
O           -5.06355896602988       -1.85465496599506       -1.74052534226716
C           -5.48752215391044       -1.08349977786963       -2.83246848469173
C           -4.21229516223831       -2.07841140551809        0.43591722380482
O           -4.48983321273570       -3.40685152109937        0.23891237540589
C           -4.35906476841751       -4.28336123681745        1.32362185515167
C           -3.69599425278167       -1.51701393527815        1.60493066069516
C           -3.47043994872426       -0.17372387952081        1.72337083999540
C           -2.32485646112299        2.26682271122398       -1.08372933451598
C           -1.49898256589433        1.16419470302948       -1.78816464602083
C           -0.11542344457564        1.09022297596323       -1.27409270843514
N            0.41337819422564        0.06470034509165       -0.58529050128448
C            1.80520232666978        0.09624697384931       -0.22293201169072
C            2.70361395572364       -0.57212064804364       -1.28469248807531
C            4.14480745820375       -0.46439405134347       -0.87752738661472
C            4.85806537381278        0.69534511837168       -1.11486333501401
C            6.17586443958178        0.81805399597669       -0.69644664411768
C            6.80097556468990       -0.22153901464655       -0.03155725619931
O            8.08169059297907       -0.21246507620663        0.42633632429698
C            8.85989879488655        0.94125318174258        0.23162424227789
C            6.08277806071130       -1.41596165473055        0.20946139485500
O            6.78050389188188       -2.38905926811116        0.85496240458670
C            6.15578660917586       -3.62373570511938        1.09699655212124
C            4.76865719225682       -1.51646972745364       -0.20895009321933
C           -0.34224066518498       -1.12752369073729       -0.29330030696296
C           -4.01089654048341        2.19244388240819        0.89357049242757
C           -4.23792445248213        2.71551796764272        2.28742609349365
C           -2.74159813275889        6.01211573566050        0.37408794395785
H           -4.60318049671193        0.77220653056956       -1.36401555421092
H           -6.26251263967248       -0.36331434473339       -2.54740733798572
H           -5.90553647652312       -1.79272740465349       -3.54652144875265
H           -4.65364646240173       -0.54938146888254       -3.30387588633103
H           -5.00223608066131       -3.99416557458725        2.16284954703114
H           -4.67413844883215       -5.25611666780750        0.94716347816287
H           -3.32131783001529       -4.34980808403864        1.67221876319373
H           -3.49591938462613       -2.14675383661465        2.45856930070817
H           -3.06663655223020        0.22957834875373        2.63360371584450
H           -3.24953716190231        2.41626398505341       -1.63899205656604
H           -1.77379188654539        3.21032226304819       -1.12218136471662
H           -2.01872259259675        0.21359684047429       -1.67783230697916
H           -1.45835520498302        1.41581706084074       -2.85499951099575
H           -0.59404002462170        2.49853310232171        0.72002919326727
H            0.54074891957755        1.92440256802923       -1.46256655541683
H            1.93681465155833       -0.41153381867785        0.73582683326433
H            2.12336769020935        1.13460639429374       -0.10098236513286
H            2.54376972746704       -0.06769681189697       -2.23974778483241
H            2.41532688574158       -1.61839081568499       -1.39562238758475
H            4.39411420164248        1.51783041360994       -1.63866936460626
H            6.70624649744496        1.73440988222089       -0.90056450832842
H            8.41977684088228        1.81505582139991        0.72374614807940
H            9.00436335014365        1.15772852383195       -0.83219375101383
H            9.82405422775238        0.72063820684195        0.68714960077070
H            6.90800610327532       -4.23772527256263        1.58982816044377
H            5.28869713308894       -3.51759439645317        1.75780973496844
H            5.84655374647657       -4.11052979570075        0.16581913039963
H            4.21037810842342       -2.42233057650572       -0.02905292711024
H           -0.66270960280676       -1.63211527987463       -1.20874397670044
H           -1.22693595409427       -0.88656346236261        0.30084393197549
H            0.28123715233953       -1.81236541839610        0.27616974957365
H           -4.67277818894111        2.64778237939748        0.16360524053854
H           -3.43511653300413        2.40441143021753        2.94956463497607
H           -5.18531452381956        2.34475965423764        2.67796022670455
H           -4.27094105637132        3.80399339850272        2.26601200936653
H           -2.21445593431338        5.35490419704251        1.02943332540045
H           -2.34421716346006        6.24387652190316       -0.58912986174856
H           -3.62965595142503        6.49854114159885        0.71064070969445
H           -0.53312157253040        1.81770603332565        2.91274953145189
