72
 energy: 90.244311457399 xtb: 6.6.1 (8d0f1dd)
N           -1.39622325005961        1.61888232368445        2.42833654077069
C           -1.46078770457148        2.06293863051766        1.23126993576518
C           -2.60795244248440        1.96232880590110        0.36985030177870
C           -3.77445023265314        0.74242884712863        0.63321637950897
C           -4.34276173316157        0.11753427278315       -0.55576201784333
C           -4.57274329614331       -1.22926433397626       -0.65131498100433
O           -5.14460100444165       -1.86896250350722       -1.72052354237861
C           -5.49462650516909       -1.13168170593440       -2.85754837823798
C           -4.24261479822140       -2.09034525231029        0.42647219170287
O           -4.53437019257940       -3.41970191498525        0.24575385097455
C           -4.37298703494508       -4.29846347585011        1.32619828630941
C           -3.67360297187716       -1.53048538386371        1.56703371215533
C           -3.45987425875791       -0.18308361887270        1.69837794849125
C           -2.32092073543554        2.26554271373956       -1.08219630968663
C           -1.48589774437093        1.15458812373148       -1.74685038148949
C           -0.10706550136838        1.12627115767767       -1.20227770211534
N            0.43616195368048        0.08619465459574       -0.55547935577020
C            1.82250899640637        0.09760517201129       -0.18647547151491
C            2.69462382229649       -0.56996604911151       -1.26410059943866
C            4.14076001436306       -0.46552429773331       -0.87920437128455
C            4.85665662674472        0.68696808116047       -1.14050719304196
C            6.17734802065469        0.80987907291253       -0.72920306791029
C            6.79924523541106       -0.22448957725201       -0.05499645236187
O            8.07245379418761       -0.21367637648982        0.41846097084712
C            8.85241921360176        0.94149824557259        0.24279196792777
C            6.07860730458497       -1.41237015021515        0.20641252274012
O            6.77580756288753       -2.37667938149496        0.85970886688550
C            6.16066347725043       -3.61944954846054        1.08243582926793
C            4.75975161053853       -1.50952896566999       -0.19511901076411
C           -0.33881807293638       -1.10232320312945       -0.32396752489425
C           -4.00064670970375        2.18976947980517        0.89541021595976
C           -4.16986412072333        2.74414640286134        2.27960526744889
C           -2.73736299058003        6.02624566651522        0.38376992043480
H           -4.64601113503166        0.75385027990233       -1.37122724623958
H           -6.25195515288102       -0.36994490612480       -2.65684415062845
H           -5.90107615008198       -1.83960756681424       -3.56555894476206
H           -4.62055329476612       -0.66965872514537       -3.32406044897743
H           -4.97777678925233       -3.98946854917271        2.18583443379877
H           -4.69005980691636       -5.26814227320365        0.95414465195914
H           -3.32441166683859       -4.38745196522857        1.63282350963420
H           -3.45392084089408       -2.17895534364445        2.40027366898240
H           -3.01650692931788        0.20306140302026        2.59718660519713
H           -3.24823918888261        2.37539889915667       -1.63828021352630
H           -1.76786575315846        3.20571431036590       -1.15465649098267
H           -2.00574429511924        0.20684086380722       -1.62453174168876
H           -1.45162591539440        1.36302664241049       -2.82167441440913
H           -0.62292927488521        2.62465474277530        0.75963127312468
H            0.55364900095210        1.95080039225838       -1.41998507641378
H            1.95877577593943       -0.42759697006100        0.76415058960035
H            2.15381491955427        1.13011159859924       -0.05711415604208
H            2.51740788014320       -0.05932419225671       -2.21333454496750
H            2.39231163008904       -1.61266425079997       -1.37080696041599
H            4.38343394613325        1.50879167187758       -1.65887130462736
H            6.71141479243446        1.72264340131463       -0.93911043018500
H            8.39189859315094        1.81492678696600        0.71679052415908
H            9.02765499642291        1.15301191458325       -0.81777163623732
H            9.80737191552118        0.72564181470513        0.72012548518655
H            6.91219944495919       -4.22844663041201        1.58153509758933
H            5.28412142162911       -3.52612101127109        1.73392673494921
H            5.86697716931133       -4.10337654488833        0.14540240767890
H            4.19697979382176       -2.40775747198012        0.00470523436780
H           -0.67838729018473       -1.54648750751328       -1.26260657115687
H           -1.21275931348990       -0.86634531663203        0.28952559336981
H            0.26590883847163       -1.83918316337497        0.20212326381039
H           -4.69640256080456        2.64400060875741        0.20645443736852
H           -3.36382859625653        2.39107074428252        2.90699592359362
H           -5.10061630306572        2.34938366356123        2.65256846980400
H           -4.20047131878864        3.83390515570591        2.30323726116281
H           -2.26270099161045        5.29707204785459        0.99984866241935
H           -2.34850619500760        6.22357981702323       -0.58818225047476
H           -3.63068746205296        6.50944165523088        0.71129989655482
H           -0.56985507444052        1.91567092531926        2.94336976333194
