72
 energy: 77.307125951997 xtb: 6.6.1 (8d0f1dd)
N           -1.47661283517975        1.88132436275727        2.48435779510884
C           -1.49574330254003        2.07181828817824        1.23007761633233
C           -2.72829116532101        1.95079707309229        0.37111232088902
C           -3.49586473726225        0.64209015547051        0.50955745630337
C           -4.23166206101092        0.13033107822241       -0.56853264931985
C           -4.60507031613419       -1.18859761208769       -0.61477847293900
O           -5.29688340280511       -1.75764364764810       -1.64363148558605
C           -5.78122307732971       -0.93286020566639       -2.67694364140934
C           -4.25944747916162       -2.05004832113926        0.44916252617219
O           -4.61791212016554       -3.35091157469005        0.27833327491250
C           -4.44212623805031       -4.23476231535804        1.35237289152037
C           -3.65488504033883       -1.50890521803239        1.56426297950366
C           -3.24107721174981       -0.18635739927102        1.57644394934489
C           -2.33658702092252        2.26603819761621       -1.09572330760586
C           -1.47399057323545        1.17705124112165       -1.76809662332524
C           -0.10386789234268        1.11345608149582       -1.22529910105896
N            0.44043569181044        0.03781153637146       -0.58811049737293
C            1.82993182281850        0.07568144255347       -0.22898326648608
C            2.75784646248185       -0.57011654420759       -1.29158825114342
C            4.20228451940340       -0.46534224231547       -0.88083376959750
C            4.91042958961760        0.69636573809604       -1.10826700085465
C            6.22009663456786        0.81487665858216       -0.68057544437451
C            6.84965719830672       -0.22276757711825       -0.01248403637009
O            8.13262598999935       -0.21517796157989        0.45365081058509
C            8.91015870835334        0.93547720620768        0.24895032316717
C            6.13380847882974       -1.41715546522867        0.22851251433145
O            6.82451636537528       -2.39204741798357        0.88204306508421
C            6.18844701259289       -3.62299149485510        1.11484726212130
C            4.82031325642714       -1.51741042480928       -0.20282178622267
C           -0.28424643604927       -1.17575585039919       -0.35593938282772
C           -3.82275044361314        2.90070462429033        0.80809814700293
C           -4.19909678414088        2.95921682188686        2.24521206359463
C           -3.01018175358015        5.18283948154931        0.46691456302342
H           -4.52618018444419        0.76612035067383       -1.38363106136277
H           -6.45092129417561       -0.15154746366320       -2.32460825064438
H           -6.36451493326852       -1.58507034773480       -3.32551969853781
H           -4.93530779920938       -0.49016456663522       -3.23509619762917
H           -4.99873352033218       -3.92497546717110        2.23549791044542
H           -4.86880631910109       -5.17930586844551        1.02134387689685
H           -3.37553945678932       -4.35139513110998        1.61634338981981
H           -3.41430107635172       -2.13027043989832        2.40860278799112
H           -2.72333707789643        0.19202874742392        2.43959953554908
H           -3.23244495553804        2.42862965494475       -1.69469067866805
H           -1.78434329489025        3.20351669668661       -1.09463028086343
H           -1.99495751128298        0.21732766490382       -1.68726568627472
H           -1.37253908196458        1.42378506498975       -2.83377587759403
H           -0.61740496579650        2.45797879807726        0.69058215668589
H            0.59464972045800        1.92372892142583       -1.40801158455272
H            1.97288380888621       -0.44117408743421        0.72741880372666
H            2.12783223899411        1.12035331548755       -0.09964012197016
H            2.58319864188536       -0.05230426953528       -2.23727828887056
H            2.47457208706134       -1.61521417028158       -1.42315065864660
H            4.46201916044803        1.52836939729384       -1.62542921167942
H            6.72704953106478        1.73814805078709       -0.89298285033074
H            8.47698649581699        1.81112276675569        0.74334609578277
H            9.04160643116719        1.14837934321821       -0.81790607087356
H            9.86691418834071        0.71436521212693        0.69830102068952
H            6.93712374905247       -4.24269399218351        1.61281277091917
H            5.30740986893194       -3.51241067059423        1.76272306250925
H            5.86711220998127       -4.10239706312337        0.17878339011784
H            4.22793442524747       -2.41040393799297       -0.02482852409471
H           -0.63622250577736       -1.66815832705589       -1.25549748942444
H           -1.18322511081408       -0.97487529440619        0.21285106358163
H            0.31972229262287       -1.85800930657116        0.23312628537817
H           -4.66563077168127        2.85295569310251        0.13352938126899
H           -3.39313319061513        2.59095161702196        2.87268082626932
H           -5.07337138150830        2.31817769565561        2.38364162221490
H           -4.54209062426785        3.95563138665870        2.51256758153586
H           -2.22312870159594        5.12570959100413        1.19632315915810
H           -2.62175612705265        5.51770828194578       -0.48445685838234
H           -3.79924834297241        5.83953898014072        0.78772242150722
H           -0.55844969500412        2.01776620218297        2.90387418705097
