72
 energy: -1.191917711686 xtb: 6.6.1 (8d0f1dd)
N           -1.52651217104507        2.57724655402723        2.37977557036084
C           -1.54165354324718        2.14456926890243        1.19755103985116
C           -2.74620924276143        2.07025559871416        0.29946195720843
C           -3.38087701807115        0.67779320123264        0.40072797481765
C           -4.29046952312498        0.22368111851533       -0.55894128875455
C           -4.78918714951898       -1.06454525730669       -0.55062912744563
O           -5.69321869820451       -1.56330245173056       -1.44279419660855
C           -6.24551079284029       -0.69264964675598       -2.39564802333876
C           -4.36514649852853       -1.97346418689771        0.44138680977875
O           -4.90667114037419       -3.22278800594627        0.36832782959881
C           -4.61013268358879       -4.13730541019190        1.39054286177126
C           -3.47267145247362       -1.53010414759349        1.39641430136932
C           -2.97300454898857       -0.23240965590144        1.35821064328043
C           -2.23334533359708        2.29440224687834       -1.15791176963481
C           -1.31098371634330        1.18744757069067       -1.70393004515643
C           -0.01949150806443        1.15005126510396       -0.97585108891328
N            0.58299529604744       -0.03347276082290       -0.56456862831602
C            1.95807860260806       -0.01184556489058       -0.17878680734716
C            2.89218820665583       -0.55193183969230       -1.28664867291677
C            4.32227881054443       -0.44344554801153       -0.85637587077227
C            5.03654016571486        0.72130623266444       -1.06292413953649
C            6.34514359664525        0.83546527903893       -0.62164834027211
C            6.95991455273864       -0.21298078099342        0.04049707290983
O            8.24116798207515       -0.21554202489701        0.50717949162045
C            9.02913124383078        0.92831043709724        0.30125336304333
C            6.23522510302914       -1.40464479294590        0.26710753984732
O            6.92046610563365       -2.38695525221684        0.91908812132335
C            6.28395378772462       -3.61704212230197        1.14298275830088
C            4.92950519107166       -1.50004444944009       -0.17703760549092
C           -0.11117427982490       -1.28310369108373       -0.54973576242913
C           -3.79495751613183        3.16578041966538        0.66269068418576
C           -4.40988792461944        2.85175908865682        2.02656129910269
C           -3.30212903753991        4.65457395027081        0.54288956056116
H           -4.62343183968236        0.89323390765452       -1.33526563521302
H           -6.74915527934574        0.15707834638256       -1.93004691589857
H           -6.97960840628568       -1.28694853163097       -2.93679998000858
H           -5.48272451488025       -0.32347946322979       -3.09286618550789
H           -4.91665969166317       -3.76644639050060        2.37176859923519
H           -5.19111469118311       -5.02845187421314        1.16020709932785
H           -3.54270528369221       -4.38885206133544        1.41533776416927
H           -3.14662560844578       -2.19464726631308        2.18096032472258
H           -2.28195021713972        0.07089468388084        2.12596594169063
H           -3.08145963000537        2.39907950247149       -1.83631695510081
H           -1.68464602883178        3.23428856794682       -1.17572653481778
H           -1.85169538049211        0.23941191974863       -1.65440815179035
H           -1.09884815879859        1.39408063075777       -2.76244682064906
H           -0.61993788902892        1.88284095544186        0.64967661517926
H            0.64639159259719        1.99189676937088       -1.06545907444832
H            2.09709270598965       -0.60132012674476        0.73592748035372
H            2.25373361962213        1.01417831937265        0.05302320633864
H            2.71718660259723        0.03956889959079       -2.18630348405830
H            2.62879995894252       -1.58897669150795       -1.49393384990006
H            4.58186928168918        1.55382304770583       -1.57743907861451
H            6.87462460638227        1.75382526953776       -0.81368821291660
H            8.60756562038659        1.80901068000469        0.79792188275266
H            9.16088708121890        1.14201018155775       -0.76515665169856
H            9.99457853771807        0.69774230409201        0.74302185278985
H            7.02552898165906       -4.23967107840351        1.64341348785945
H            5.40515288045939       -3.50801122051969        1.78909339906840
H            5.98135475691930       -4.09460941880384        0.20385331268208
H            4.35044162414669       -2.39891661678601       -0.01466313731475
H           -0.32807876487018       -1.65021734148042       -1.55698959586611
H           -1.06209350153690       -1.18176617483405       -0.02577360929892
H            0.49501278298888       -2.01938725181090       -0.02546415489692
H           -4.62076718769516        2.99533247602951       -0.05356088972977
H           -3.64546442941635        2.84224506706066        2.78552959464469
H           -4.92770082945443        1.88916161523368        2.07135101659337
H           -5.14923516922979        3.61383337306629        2.23397445860084
H           -2.49823108360935        4.80316691584765        1.24979724494495
H           -2.94410408579545        4.96844068917053       -0.43911055672796
H           -4.11532162200744        5.33709712662051        0.79933885102943
H           -0.59518337091206        2.59082220769308        2.79359094545231
