72
 energy: 88.270658254692 xtb: 6.6.1 (8d0f1dd)
N           -1.43368237110450        1.66053718747091        2.45091066859918
C           -1.46990200191397        2.06203202465408        1.23906399874508
C           -2.61533325190017        1.94482042586962        0.36763857130663
C           -3.74626493469659        0.74646786221987        0.62513877283474
C           -4.32586819166313        0.12087190434192       -0.55934102312928
C           -4.55287836112752       -1.22555059825876       -0.65467666421611
O           -5.11285669183080       -1.86905838131231       -1.73111853380490
C           -5.49492745778587       -1.13099526498709       -2.86143270514285
C           -4.23193003476608       -2.08866112389642        0.42749155745925
O           -4.52217274710747       -3.41887492649658        0.24108792617979
C           -4.37137074609004       -4.29555165743534        1.32490846333285
C           -3.69046593664003       -1.52756513316303        1.58200148644109
C           -3.46959097728104       -0.18234493260820        1.70143025615177
C           -2.32068429567015        2.26620997158189       -1.08121714518987
C           -1.48998250308426        1.16004611785444       -1.76620675063839
C           -0.10685798709294        1.10909721863424       -1.23990681756403
N            0.42526480309619        0.07868446833770       -0.56228368709272
C            1.81502480272114        0.09698976171058       -0.20314402425854
C            2.69893666308781       -0.57103686235154       -1.27443156742621
C            4.14285010394964       -0.46617731508820       -0.88052760120201
C            4.85750894799239        0.69032558209831       -1.12893776298539
C            6.17640484420164        0.81392744907983       -0.71323194985457
C            6.79967101667170       -0.22279914631430       -0.04340654871953
O            8.07703669689283       -0.21369377639885        0.42126452648472
C            8.85526309576831        0.94151481570397        0.23817072953885
C            6.07910691018733       -1.41284105809508        0.20829972544485
O            6.77765130912870       -2.38178806230605        0.85837057301825
C            6.15808947336256       -3.62092131982436        1.08959775877405
C            4.76353425323256       -1.51305085809407       -0.20198868057313
C           -0.33813536521243       -1.11485364197355       -0.30971122169412
C           -3.99949490051959        2.21427360390696        0.89072769564628
C           -4.19505292166609        2.73647605223235        2.28707502230310
C           -2.70300122074957        6.06698476050058        0.40846113332439
H           -4.62679291844319        0.76411962714356       -1.36926855887420
H           -6.25749840715060       -0.38186038051213       -2.61530400365604
H           -5.89579603310508       -1.85537767604276       -3.57875645594868
H           -4.63793409112850       -0.61684218192400       -3.31543751181301
H           -4.98387483819468       -3.99030296276633        2.18049232740514
H           -4.70724384010574       -5.26910861788369        0.96460342279269
H           -3.32567949095780       -4.37203777402531        1.64847659236524
H           -3.47164358243864       -2.16195071764617        2.42791289593245
H           -3.02818309375415        0.20808172979311        2.60017640255377
H           -3.24813225613144        2.39499277372563       -1.63716311730113
H           -1.77118691550230        3.20958162327579       -1.13921179940981
H           -2.01219040493281        0.21188271983965       -1.64890706871671
H           -1.45629810298782        1.38940791821261       -2.83747462422279
H           -0.61772553149400        2.56719185074506        0.74612056568156
H            0.55098069877554        1.94437689291651       -1.42652192978886
H            1.94890863744392       -0.41992411400087        0.75133645025542
H            2.13922771527514        1.13255299588996       -0.07866594929337
H            2.52966205045001       -0.06332945353790       -2.22627260630340
H            2.40330477396826       -1.61540605180367       -1.38251291209160
H            4.39049921867387        1.51074023241913       -1.65400676641012
H            6.70858965380943        1.72861368865984       -0.91962433812708
H            8.40521860659796        1.81528938170340        0.72070907055156
H            9.01543633021713        1.15586144888014       -0.82434009308384
H            9.81553749852198        0.72361124679170        0.70352027244902
H            6.91087193853174       -4.23162345026806        1.58456098302924
H            5.28642051008656       -3.52197307843745        1.74606578309737
H            5.85648284624059       -4.10646824603823        0.15548992864696
H            4.20346827796267       -2.41522741848654       -0.01202405527797
H           -0.66902530023071       -1.58962420362470       -1.23661483975538
H           -1.21447303248818       -0.86654840781098        0.28984764567354
H            0.27342021043086       -1.82598019349168        0.24079728479314
H           -4.69336397761530        2.66314162858613        0.18805706351019
H           -3.38889556872900        2.39620813777623        2.92908863032270
H           -5.13525009869303        2.35466821225312        2.66914441764273
H           -4.21127472576923        3.82800293574346        2.30173926488962
H           -2.24299436181788        5.31672845429050        1.01313372666678
H           -2.32248137905262        6.27324746131087       -0.56767879047229
H           -3.59314731700213        6.55018176692635        0.73767483953420
H           -0.56004200945562        1.86922982009824        2.93122964112818
