72
 energy: 10.238198284539 xtb: 6.6.1 (8d0f1dd)
N           -1.52320079155134        2.34070543757541        2.46891114267756
C           -1.52314694819580        2.12768457275941        1.22287443753057
C           -2.74309713982939        2.05113567524111        0.34228231148048
C           -3.44262178389143        0.68477605942817        0.46535934072699
C           -4.26487467644094        0.19341901580955       -0.55536896604173
C           -4.72800843026031       -1.10767713089540       -0.57260931158659
O           -5.56609162476130       -1.63476895840920       -1.51651119866847
C           -6.09534350638882       -0.77731020525245       -2.49483823470141
C           -4.33201116772297       -2.00242871063703        0.44222939499955
O           -4.81868485755501       -3.27370362558078        0.33251688370458
C           -4.55601424033327       -4.17380185985325        1.37536960812400
C           -3.52840159445799       -1.52104007010647        1.45705809863293
C           -3.06056070002374       -0.21218603983638        1.44019276230258
C           -2.27454558067740        2.28718254193557       -1.13678812190663
C           -1.36881854731731        1.19422975480716       -1.74199315156589
C           -0.05697708458145        1.17272589169996       -1.05945974116184
N            0.54023954379456       -0.00507333671385       -0.61736824024623
C            1.91315410633537        0.01907471546468       -0.20121367578445
C            2.84890339884816       -0.55864647914031       -1.29139985076484
C            4.28443253221474       -0.45200914536811       -0.87180929278271
C            4.99623419619118        0.71261394298577       -1.08267684242065
C            6.30385740926397        0.82887821837190       -0.64211562000271
C            6.92268365730577       -0.21671018387594        0.02253495998011
O            8.20553014888858       -0.21819870785803        0.48744385476808
C            8.98970711120283        0.92803943823234        0.28183779643698
C            6.20001925430057       -1.40842214043841        0.25424119734604
O            6.88780818020187       -2.38925878375903        0.90727892446182
C            6.25120194865580       -3.61835187550467        1.13445754281645
C            4.89225125179878       -1.50633032628272       -0.18886852029101
C           -0.16689486899624       -1.25039019724445       -0.48561475444386
C           -3.74783119385191        3.17936490220316        0.72416018496037
C           -4.33243702259125        2.91700061802980        2.10612093332390
C           -3.21260143151237        4.76519532487092        0.54516355293314
H           -4.57895410453299        0.84332085176422       -1.35425721520122
H           -6.65281805752735        0.05225902513844       -2.06026492259211
H           -6.78239984743216       -1.39076140148103       -3.07639319246025
H           -5.30086929043723       -0.38054294502401       -3.14383654880749
H           -4.94803941858093       -3.82196960428535        2.33155947630557
H           -5.08653743666343       -5.08712631492776        1.11111369274352
H           -3.48007070999937       -4.37639957294980        1.47769390424122
H           -3.23046131912955       -2.17112470603226        2.26384398174163
H           -2.42364406218280        0.11682030258727        2.24152263115763
H           -3.13841051277116        2.41217332530295       -1.79084225062174
H           -1.72850676367123        3.22774254019556       -1.15492945085791
H           -1.90445143134632        0.23807347338435       -1.66448929628435
H           -1.19251872725846        1.40496164162861       -2.80852026871786
H           -0.58873265945373        2.13865476268283        0.63873238407442
H            0.63643946477524        1.99196931560157       -1.19131582133999
H            2.05995067618392       -0.54002255151278        0.73391832803980
H            2.20971436600646        1.04900758150086        0.00074489243268
H            2.66991298354205        0.01188649677376       -2.20369553913380
H            2.57649368046116       -1.59816479124252       -1.47263984316316
H            4.54188318444692        1.54625791895007       -1.59421469638777
H            6.82533536199985        1.74948117917553       -0.84056791628330
H            8.56462070118895        1.80744072286832        0.77734701613997
H            9.12143784347512        1.14154842870104       -0.78474942278179
H            9.95316094927059        0.70291305064657        0.72512320353508
H            6.99478307358407       -4.24111679695210        1.63391955726833
H            5.37168638227568       -3.50665396003720        1.78039152700416
H            5.94178195044809       -4.09519310479483        0.19627342697156
H            4.30080910595969       -2.40051745310466       -0.02290705454819
H           -0.43311023970262       -1.67353314636022       -1.45599327047573
H           -1.10120471753777       -1.11322942677464        0.05513044997349
H            0.43321907854192       -1.97390293543642        0.06757102925880
H           -4.59669660286401        3.02945974959009        0.04763722775230
H           -3.54484888412432        2.77287106581945        2.82665418790266
H           -4.98059647508629        2.03274354437881        2.16164298273130
H           -4.96504281979024        3.75932641201720        2.34304353247698
H           -2.40070287865110        4.90320085489034        1.23769668620329
H           -2.84584439595085        5.12108695554168       -0.42852424990476
H           -4.00543790688910        5.47839553281380        0.80160336347293
H           -0.58112751545205        2.40917371242498        2.84680322964397
