25
 energy: -42.138482980656 gnorm: 0.007526633477 xtb: 6.6.1 (8d0f1dd)
C            2.86162715934554        1.23492822467850       -0.04355560080111
N            2.27855696924674       -0.07906563012198       -0.05858554588592
C            2.97884937307455       -1.20099130532342       -0.12734243712916
N            2.15506108151118       -2.24900939113496       -0.12557447560008
C            0.83665582365162       -1.80782877175027       -0.05475403702724
C            0.93752246754492       -0.38041801530974       -0.01344845145328
C           -0.07398119113388        0.67924971655435        0.09941930231742
O            0.27189017892395        1.84495002500350        0.24093364892155
N           -1.34066628771698        0.22638462201514        0.04875144563421
C           -2.48588054206235        2.41191091398505        0.04664861021405
C           -2.51123392768020        0.89238179769474        0.12769823916202
O           -3.56736227978205        0.31322737680888        0.21683162174505
N           -0.10983492945971       -2.67918625151477       -0.03028341858588
C           -1.48104488579372       -2.51683178688904        0.02393538253068
H            2.61413349951169        1.74706330808438        0.88750346394799
H            3.94126512028523        1.15268006473417       -0.14474513341249
H            2.45810162924306        1.83672500831284       -0.85872785759837
H            4.05059446322725       -1.25305074941404       -0.17832790479950
H           -1.54162384073042        2.81683071792433        0.40422007124116
H           -2.62702018026845        2.68576020988442       -0.99982424866866
H           -3.32341553417065        2.79797905825514        0.62586141051769
H           -1.87644968529407       -3.01913516356108        0.91318350179401
H           -1.94060390551216       -2.98278865379341       -0.85460176148915
H           -1.75539183317874       -1.42744893576217        0.05223781586341
H            2.41068277131899       -3.22607784776887       -0.16628202353921
