25
 energy: -42.517336353674 xtb: 6.6.1 (8d0f1dd)
C            3.32520300066479        1.80483253800128        0.19863354216091
N            2.38770861957391       -0.15103447738402       -0.05420479324357
C            2.58116702797203       -1.45096538372006        0.09772077795116
N            1.38870899092366       -2.14583285941404        0.06007459681350
C            0.39806820293348       -1.22803474140748       -0.02446005624541
C            1.01909725273090        0.02093748980603       -0.04668994047843
C            0.21630438807380        1.20645802385433       -0.10240605322138
O            0.58668132151929        2.35873587378361       -0.22040801804099
N           -1.17297019267377        0.94180570195497       -0.04741077374182
C           -2.04532609506893        2.10559805414788       -0.01779287956387
C           -1.78234557690318       -0.27458166143144       -0.04729149020022
O           -2.98944133280600       -0.38540540193476       -0.03873786025112
N           -0.95376098524153       -1.40800352757638       -0.05538784308262
C           -1.63332110092560       -2.68149211855743       -0.06419800274614
H            3.67841585273614        1.95862108265366        1.17125597870030
H            3.99982139126192        1.75873055330983       -0.62104266139737
H            2.38665538268326        2.27044196431084       -0.00159261283795
H            3.51572880381294       -1.98166802343383        0.01504086378879
H           -1.38080675049806        2.96280765538995       -0.10416994320654
H           -2.78670678749468        2.03490116115013       -0.79125159657546
H           -2.52598703369612        2.16010286776481        0.94581307635681
H           -1.38868431588155       -3.26359142582965        0.82519807946960
H           -1.38854509105984       -3.24772968421579       -0.96377126857618
H           -2.69957566626336       -2.44826684291936       -0.06333690850658
H            1.29408420134075       -3.14744181035214        0.04000814447497
