25
 energy: 0.000000000000 xtb: 6.6.1 (8d0f1dd)
C            3.23720163006194        1.16630919979326        0.08434469647475
N            2.29877817382611        0.07527477071623        0.03981603040599
C            2.58028210190900       -1.21425402444508        0.03006176031096
N            1.43813958087363       -1.93419271955128        0.00098261760884
C            0.39035688448383       -1.05887472636071       -0.00790371836672
C            0.93510056364412        0.21347819449412        0.01709077491437
C            0.09450143893243        1.40504303904423       -0.00410947031874
O            0.49712751527797        2.54126714362870       -0.00342325688240
N           -1.25076640035757        1.06271879480407       -0.03085478223738
C           -2.21907211982101        2.15522099834493       -0.05001256985998
C           -1.81739487048744       -0.20012725993278       -0.04692818574614
O           -2.99983886758376       -0.37846417018721       -0.07008878229737
N           -0.92618586207120       -1.30210215599479       -0.03682761578324
C           -1.46982264913417       -2.64643102187190       -0.06029820460571
H            3.71247264356769        1.21471455160235        1.06488849150277
H            4.00791497605742        1.03430808813993       -0.67357694370751
H            2.69910007168542        2.09770118228144       -0.09130154882931
H            3.56654120610678       -1.63682992603973        0.04233140067262
H           -1.67107961066214        3.09322851271934       -0.02552706933167
H           -2.82428953597071        2.09428624779827       -0.95318082946668
H           -2.87644029173232        2.07745725625962        0.81450067533302
H           -1.17061996399332       -3.19584890659852        0.83242232437030
H           -1.14560257411436       -3.17511610292205       -0.95688275822323
H           -2.55549792440841       -2.55659984320617       -0.07459039797972
H            1.38130855184625       -2.94313852034425       -0.01389874181052
25
 energy: -0.942534682034 xtb: 6.6.1 (8d0f1dd)
C            3.24091166929036        1.18409677714075        0.08614770450822
N            2.30340689969780        0.08791795690123        0.03805880644981
C            2.58009667877172       -1.25502349902653        0.03002743505415
N            1.40530949141795       -1.99991007856223       -0.00041777259898
C            0.40236166162404       -1.06406131017797       -0.00835253116445
C            0.93096450387889        0.22351239439439        0.01562896904342
C            0.10196491965594        1.40882713600659       -0.00409917731628
O            0.49350442351307        2.57722945199835       -0.00214511241606
N           -1.26008298676976        1.06627859059306       -0.03118493651393
C           -2.23100918393421        2.15658741032553       -0.05044477085570
C           -1.81467172675174       -0.18834734652793       -0.04767349668046
O           -3.00967295734145       -0.37614946539891       -0.07118652328054
N           -0.92494409784804       -1.28817672369939       -0.03697718208065
C           -1.44252559679939       -2.63233606704825       -0.05926622567473
H            3.72653971820024        1.24081182609227        1.06476975909005
H            4.01210849361984        1.06194534599943       -0.67614664727260
H            2.70930209632396        2.12180319554007       -0.08549655091350
H            3.56651248363718       -1.65385120795060        0.04372535602769
H           -1.68584491171569        3.09766594502511       -0.02618205528796
H           -2.83816705404561        2.09687757647687       -0.95359750717674
H           -2.89037992710923        2.08004826488771        0.81382912779543
H           -1.12029903477075       -3.17214151736808        0.83326589279779
H           -1.09529046791088       -3.15256374997725       -0.95410864663454
H           -2.52737021518021       -2.55648598386189       -0.07379273698108
H            1.27948978848215       -3.07552631961033       -0.01734728177106
25
 energy: 10.074034830082 xtb: 6.6.1 (8d0f1dd)
C            3.24468883370007        1.19206877595168        0.08730403989109
N            2.30677331445473        0.09078097934056        0.03550289087858
C            2.57181321416167       -1.29151490174893        0.03078914474980
N            1.36926713835181       -2.06039217128558       -0.00141516876451
C            0.41394388409548       -1.06622945621088       -0.00890530742139
C            0.92822832291071        0.22862118928710        0.01398456842267
C            0.10856513660541        1.40572310824749       -0.00374359508926
O            0.47943902562455        2.58850262028018        0.00011842558944
N           -1.27075422444191        1.07552533840327       -0.03170362351738
C           -2.24332684955512        2.16357431499265       -0.05107854800615
C           -1.80864177177122       -0.17268246842586       -0.04845340212158
O           -3.00705248837478       -0.37477077415666       -0.07270549884284
N           -0.92222532002702       -1.26483123732007       -0.03713024555085
C           -1.40676701902745       -2.61410844413598       -0.05794449392252
H            3.73989916398015        1.26140526108555        1.06300009035809
H            4.01636511565468        1.08950619978538       -0.68000805433099
H            2.71509174022851        2.13518216261016       -0.07817781563830
H            3.56489225214387       -1.65708510462614        0.04603203865164
H           -1.70411211945204        3.10878637972587       -0.02704099185276
H           -2.85277131020887        2.10126742935963       -0.95346467546829
H           -2.90489865087077        2.08446659484160        0.81222663048880
H           -1.05964333234661       -3.14221237302826        0.83470577636089
H           -1.03455574390262       -3.12431326753070       -0.95091946493518
H           -2.49156671039549       -2.56541160339704       -0.07291282438889
H            1.15956306639845       -3.20282994987300       -0.02102599939281
25
 energy: 18.928212639944 xtb: 6.6.1 (8d0f1dd)
C            3.24628488497900        1.19442998830876        0.08757962794923
N            2.30861676957127        0.09140397065298        0.03409416137497
C            2.56652387084667       -1.30364757420050        0.03181392317491
N            1.35402438447314       -2.08477118668242       -0.00158860855673
C            0.41840606740291       -1.06937923895381       -0.00928924812322
C            0.92787011964647        0.22789921205319        0.01325131042939
C            0.11130373485309        1.40509304083828       -0.00327440241714
O            0.47180845237710        2.58846528046852        0.00173439589711
N           -1.27579587719521        1.08367053822697       -0.03215186714425
C           -2.24856221851796        2.17021162240346       -0.05154835212707
C           -1.80742474554783       -0.16573485482291       -0.04904199608317
O           -3.00522763929452       -0.37590905754509       -0.07386063783485
N           -0.92137224061044       -1.25238749045722       -0.03730838647486
C           -1.38965244957438       -2.60602034227292       -0.05714435021905
H            3.74543686801900        1.26638591391808        1.06139628064704
H            4.01667222848218        1.10123675610703       -0.68263475456311
H            2.71540853668502        2.13895665977895       -0.07382740829000
H            3.56695632096105       -1.64949051836674        0.04741567848893
H           -1.71344553540968        3.11744859709341       -0.02758944755468
H           -2.85865877667657        2.10528226973323       -0.95357146946371
H           -2.91069441559454        2.08854144411871        0.81137577327216
H           -1.03069290552073       -3.12503762925256        0.83667731415077
H           -1.00537330389443       -3.10833750359116       -0.94999018895779
H           -2.47427567658811       -2.57570011519530       -0.07244754058808
H            1.10407821406367       -3.27358118018893       -0.02303591083951
25
 energy: 24.210275425116 xtb: 6.6.1 (8d0f1dd)
C            3.24732948167034        1.19728426600378        0.08772729505975
N            2.31020367624606        0.09426573045341        0.03350843788558
C            2.56637737206320       -1.30224867470202        0.03304154055772
N            1.35259324129381       -2.08936059471818       -0.00132737595949
C            0.42067114115417       -1.07232165531480       -0.00953224510240
C            0.92857541100846        0.22643305526651        0.01283008501132
C            0.11242387358074        1.40572264249962       -0.00327345760787
O            0.46895785820169        2.58708713727577        0.00237624395191
N           -1.27673536575130        1.08715589868819       -0.03247967480138
C           -2.24956417324676        2.17241998038999       -0.05169996433111
C           -1.80750400775629       -0.16468031778191       -0.04924458807326
O           -3.00434304003174       -0.37747430310361       -0.07415162744892
N           -0.92089259367258       -1.24821285861944       -0.03743909428409
C           -1.38719852862110       -2.60349052556144       -0.05691524819223
H            3.74728618904309        1.26793035541671        1.06088340254799
H            4.01658313066547        1.10533708242695       -0.68337182077152
H            2.71596390135331        2.14190393068027       -0.07253718398796
H            3.57067961656939       -1.63848954904667        0.04769981854682
H           -1.71599105416576        3.12015468461280       -0.02778573518395
H           -2.85970805788602        2.10656546929524       -0.95368116290916
H           -2.91153810985797        2.08985578512730        0.81134889827479
H           -1.02706945841133       -3.11939089491673        0.83749564967921
H           -1.00162095262751       -3.10307465283238       -0.95003160553036
H           -2.47109836525193       -2.57803711462402       -0.07231657624352
H            1.08783348236672       -3.31630627474331       -0.02409011494060
25
 energy: 32.309233892747 xtb: 6.6.1 (8d0f1dd)
C            3.24899867559954        1.20179791411534        0.08784375907194
N            2.31191929577780        0.10038325211406        0.03296771096405
C            2.56802774215714       -1.29344494914232        0.03584211182364
N            1.35619076308358       -2.08399060042130       -0.00038492445525
C            0.42258597254968       -1.07436910869545       -0.00980554328159
C            0.92942082806408        0.22599927424400        0.01242263520866
C            0.11284001083469        1.40856287976539       -0.00341271998512
O            0.46672855987269        2.58683692084233        0.00286872889545
N           -1.27647323578549        1.09044972151622       -0.03286565526655
C           -2.24998037567579        2.17356260358751       -0.05178643145147
C           -1.80814829273908       -0.16487271159676       -0.04927477785042
O           -3.00365412517163       -0.37823859799826       -0.07402534722489
N           -0.92020602370638       -1.24442758660443       -0.03760031970193
C           -1.38794669202685       -2.60188794032823       -0.05686700721908
H            3.74851028620019        1.26965928734581        1.06085851121887
H            4.01721689612515        1.10769114599065       -0.68343056583103
H            2.71837984006182        2.14646479342879       -0.07242044804241
H            3.57492421797798       -1.62303510695997        0.04666093011733
H           -1.71808919710009        3.12190470794930       -0.02787308422427
H           -2.86010331556736        2.10712488385388       -0.95376677153495
H           -2.91166079953708        2.09037055917813        0.81149912471253
H           -1.02854174536208       -3.11611841875121        0.83778218991429
H           -1.00299005938345       -3.09997986663653       -0.95015904240043
H           -2.47128068427277       -2.57789484774323       -0.07232547259248
H            1.07554612595990       -3.38351960688167       -0.02571369471763
25
 energy: 38.787539286673 xtb: 6.6.1 (8d0f1dd)
C            3.25090830067050        1.20800411943013        0.08748411449473
N            2.31354261585547        0.10821325527712        0.03285538302095
C            2.56903131352683       -1.28409822911576        0.04114027778151
N            1.35946947779280       -2.07812630249340        0.00270156991770
C            0.42602695333302       -1.07446575173935       -0.00938330586054
C            0.93008975626588        0.22859001552787        0.01273906630797
C            0.11337422776225        1.41258788850822       -0.00312267452384
O            0.46344821406106        2.58913734113343        0.00294644112242
N           -1.27646327535134        1.09429518908607       -0.03309442698171
C           -2.25113864456787        2.17486790363605       -0.05190496206523
C           -1.80732439264864       -0.16425734772416       -0.04928418658144
O           -3.00178787267013       -0.37867018606096       -0.07403045414078
N           -0.91830658627196       -1.23908557979280       -0.03779250622274
C           -1.38625785357096       -2.59890299565008       -0.05683714171174
H            3.74989105798473        1.27365887947960        1.06054024718290
H            4.01845314597427        1.11173729325589       -0.68382815210271
H            2.72146015289459        2.15317132511799       -0.07285752544595
H            3.57849624808890       -1.60689504006296        0.04468789127688
H           -1.72139201815564        3.12422932336296       -0.02794789091139
H           -2.86121445040154        2.10744513178699       -0.95391977177650
H           -2.91266952044814        2.09062934645136        0.81150824623973
H           -1.02644137613125       -3.11165854678947        0.83774240993224
H           -1.00043060917129       -3.09586342184734       -0.94979236055281
H           -2.46928326745203       -2.57699407739199       -0.07251949542003
H            1.05073307056669       -3.47852093121339       -0.03099689683235
25
 energy: 35.531678628808 xtb: 6.6.1 (8d0f1dd)
C            3.25718492809545        1.22534073056225        0.08712785351557
N            2.31878001149109        0.13181476348543        0.03190900097351
C            2.56613678128138       -1.25163448699265        0.05055744757412
N            1.37022226105481       -2.05534728048238        0.01068620202605
C            0.43962572713300       -1.07148027605676       -0.00909451724339
C            0.93409828469283        0.23959276368475        0.01251818173284
C            0.11629544909078        1.42661100675971       -0.00253289721135
O            0.45085430282001        2.59380036488902        0.00323073524830
N           -1.27535146284291        1.10817804287650       -0.03375122618294
C           -2.25398505074375        2.17928573686699       -0.05222717374574
C           -1.80281763030206       -0.16386489337292       -0.04925340616644
O           -2.99338933888660       -0.38172536074418       -0.07407722928773
N           -0.91059872322592       -1.22122491683680       -0.03816822373816
C           -1.37954047892690       -2.58995464846866       -0.05641414316564
H            3.75334841749761        1.28137953693062        1.05997647245352
H            4.02061002849355        1.12225771819203       -0.68503192391515
H            2.72790675034450        2.17008304583077       -0.07247090453066
H            3.58395382059667       -1.55768289535606        0.04194525020901
H           -1.73008031618882        3.13069168732302       -0.02826158155001
H           -2.86373874458822        2.10775980218927       -0.95432349703748
H           -2.91491327732675        2.09095345558100        0.81155905455405
H           -1.01677341692945       -3.09858222479286        0.83611332264323
H           -0.99025194060288       -3.08355204152127       -0.94694519853373
H           -2.46124794792582       -2.57871619110393       -0.07244753129424
H            0.96588623383458       -3.76495483727086       -0.04359017118027
25
 energy: 29.218313587077 xtb: 6.6.1 (8d0f1dd)
C            3.26034549488851        1.23981036298510        0.08775817019270
N            2.31773529277011        0.15050235919601        0.03335853987224
C            2.55333633939367       -1.21251314676626        0.05019622601603
N            1.39289139229283       -2.01766733065260        0.01443150169218
C            0.45387270981357       -1.05993911796567       -0.00819658453477
C            0.93883984604104        0.25707284378150        0.01197176254577
C            0.11509966268819        1.44667119925140       -0.00323356900268
O            0.43981737732096        2.60268813945941        0.00402042739048
N           -1.26972978790683        1.12195961601525       -0.03442075899615
C           -2.25560146800300        2.18293333727829       -0.05253882802832
C           -1.79498905047243       -0.16646113883779       -0.04911246535873
O           -2.98263076023955       -0.38115315141214       -0.07381627498819
N           -0.89870075242798       -1.20694402384582       -0.03733957436276
C           -1.37294435483617       -2.58237604057969       -0.05576794091594
H            3.75480235926766        1.28789004665573        1.05955917708908
H            4.02053158641091        1.12980341143740       -0.68481463573541
H            2.73450844772353        2.18604411857045       -0.07182863302529
H            3.57769610734156       -1.51500463995489        0.04205087471191
H           -1.73909402007729        3.13760484529340       -0.02872480910349
H           -2.86533150662161        2.10669741535420       -0.95434888950517
H           -2.91622530219418        2.08992113018216        0.81116047039342
H           -1.00549787852942       -3.08945063872751        0.83258266952817
H           -0.97900170898536       -3.07464047465869       -0.94201536093553
H           -2.45406800790330       -2.57806024852386       -0.07209354581805
H            0.88655265018079       -4.06636027136337       -0.05180405297420
25
 energy: 20.845344826647 xtb: 6.6.1 (8d0f1dd)
C            3.25966494814162        1.24734311490642        0.08820212056248
N            2.30882909268766        0.16067621431004        0.03877502243576
C            2.53836828858620       -1.16078516488714        0.03669025515011
N            1.44633321945185       -1.92058297914156        0.01091536528633
C            0.46047818013143       -1.01435921865108       -0.00679826826810
C            0.94186956218340        0.29636139191879        0.01184711641831
C            0.10210543719647        1.47194309439920       -0.00494613900898
O            0.43938832355997        2.62853758612436        0.00455584071086
N           -1.26032659113711        1.12295495947289       -0.03404652524228
C           -2.25494482160102        2.18021505502375       -0.05231946249993
C           -1.78696590908312       -0.17579302657666       -0.04872899816020
O           -2.97737466623648       -0.37185357122549       -0.07297094580321
N           -0.88547332130446       -1.20910934602126       -0.03526040024710
C           -1.36708159551671       -2.58455311262934       -0.05559573396461
H            3.75159723032548        1.29056409907484        1.06051161983548
H            4.01974457099240        1.12694250378498       -0.68318651018930
H            2.73752297704725        2.19374926779984       -0.07358809527458
H            3.55239708173549       -1.51726477469637        0.04841396367930
H           -1.74011615380271        3.13676076044390       -0.02862425350790
H           -2.86438246824229        2.10347249685729       -0.95385963512153
H           -2.91531352922281        2.08647606893238        0.81092557088952
H           -1.00107196522116       -3.09893071362126        0.82988071304000
H           -0.97577942601403       -3.08276567343606       -0.93984594715199
H           -2.45053055329070       -2.57047213239239       -0.07161348155703
H            0.83327675656960       -4.35049829759804       -0.05229929586411
25
 energy: 20.117830130462 xtb: 6.6.1 (8d0f1dd)
C            3.26489436172204        1.27210522787196        0.08685159996410
N            2.31060795619279        0.19032063810035        0.04032123154194
C            2.54623269153643       -1.12457815173447        0.03503648692259
N            1.47987479931566       -1.86840348027878        0.00733448750675
C            0.46044388242697       -0.98083366974163       -0.00622699135988
C            0.94171883260726        0.32687657622575        0.01390648948027
C            0.09045486991933        1.48567013301859       -0.00276921520029
O            0.43661365359038        2.64954539944909        0.00387842562484
N           -1.25744923476218        1.12084949661212       -0.03258167158868
C           -2.25540917667170        2.17852863327194       -0.05192215726814
C           -1.78046114908270       -0.17865056946881       -0.04804234804293
O           -2.97485409651848       -0.36380697700235       -0.07274799514996
N           -0.88110115008499       -1.21432964821317       -0.03493878673700
C           -1.36368009501830       -2.58541565590948       -0.05641473480802
H            3.75308927689893        1.30545305887054        1.06243058799868
H            4.02521186458143        1.13439834059066       -0.68226781519067
H            2.74606201063749        2.21729283971153       -0.07839527076540
H            3.55045376617464       -1.51384078629187        0.05177445352895
H           -1.73805680084812        3.13479952155273       -0.02783624136594
H           -2.86311301684248        2.10164555829948       -0.95411859523127
H           -2.91446397330750        2.08425605098435        0.81164191029340
H           -1.00708356727033       -3.10811531162862        0.82991586789598
H           -0.98199620245484       -3.09053242711386       -0.94269314957345
H           -2.44878172686379       -2.55758582009666       -0.07192902124600
H            0.77300689205826       -4.62662037490737       -0.05317365108259
25
 energy: 19.839231315851 xtb: 6.6.1 (8d0f1dd)
C            3.26927350061041        1.28900151916080        0.08827311356449
N            2.31329493645615        0.21471770461348        0.04073338292114
C            2.55854057165129       -1.10715296540141        0.03392392887077
N            1.48233972811172       -1.85588047886307        0.00575496369622
C            0.45846742973204       -0.96626466965699       -0.00610650230453
C            0.94144052052122        0.33927210992874        0.01545408615022
C            0.08607250483539        1.49077635664020       -0.00307192179699
O            0.43630441519010        2.65729045082900        0.00153588011074
N           -1.25814873063374        1.12093658538618       -0.03238582915469
C           -2.25720615695909        2.17900383908602       -0.05188372424804
C           -1.77671400862488       -0.17529524977421       -0.04792252311228
O           -2.97282342322807       -0.36083411877334       -0.07219905619485
N           -0.87879683740462       -1.21696653831954       -0.03528006938821
C           -1.36004509730434       -2.58415736474583       -0.05631912508652
H            3.75616885342001        1.31504857351590        1.06528082103061
H            4.02844415883120        1.14025762027171       -0.68029131453073
H            2.75215393611302        2.23280623437096       -0.07832069599728
H            3.55548747360363       -1.50643418966732        0.04741362510914
H           -1.73727454211599        3.13414177870115       -0.02809267548008
H           -2.86377631206616        2.10138247268616       -0.95430719686141
H           -2.91523534063565        2.08432945755297        0.81194811348239
H           -1.00790804900559       -3.11151106382284        0.83017821559728
H           -0.98314481644820       -3.09391086727454       -0.94304759904562
H           -2.44704947897059       -2.55284802879596       -0.07160906048231
H            0.73234943225690       -4.77868056547622       -0.05262494070217
25
 energy: 19.774888541849 xtb: 6.6.1 (8d0f1dd)
C            3.26948499007858        1.28830426580573        0.08756749431657
N            2.31147141949866        0.21800523547805        0.04085795552997
C            2.55987013764579       -1.10415147500550        0.03416196522355
N            1.48006149717471       -1.84957171489313        0.00520880206239
C            0.45728708197074       -0.96089678514080       -0.00583501650050
C            0.94126466413695        0.34223736412786        0.01677802125661
C            0.08466734801939        1.49294484457895       -0.00225304340307
O            0.43647545222230        2.65885038114134        0.00182069115605
N           -1.25895083767613        1.12106384892198       -0.03186438002542
C           -2.25853455032123        2.17923034815344       -0.05177808275974
C           -1.77605125059563       -0.17305886827435       -0.04791383507612
O           -2.97196106957595       -0.36176081648275       -0.07258405511685
N           -0.87693511980340       -1.21819306474452       -0.03557574923126
C           -1.35782723867476       -2.58334599933543       -0.05660895010527
H            3.75646043186925        1.31412226450105        1.06432490348799
H            4.02827915350090        1.13820962988434       -0.68087780829446
H            2.75345422554380        2.23233958470372       -0.07917869053971
H            3.55229869597407       -1.51069856009709        0.04885821968855
H           -1.73790556847942        3.13394169495561       -0.02779837030756
H           -2.86448599015812        2.10125533489222       -0.95438329403720
H           -2.91643877498339        2.08404702149808        0.81185724968975
H           -1.00591037860862       -3.11153433776270        0.82964662200609
H           -0.98098183716406       -3.09391960093944       -0.94308988756114
H           -2.44546576983961       -2.55239036982727       -0.07194083839445
H            0.73258795618135       -4.79600162396736       -0.05236602691749
25
 energy: 19.748185717545 xtb: 6.6.1 (8d0f1dd)
C            3.26882417766040        1.28768404620119        0.08810755072776
N            2.30961643046835        0.21931231551814        0.04080200960565
C            2.56089466991515       -1.10335565631371        0.03335206912542
N            1.47656672276027       -1.84692939187840        0.00453928990366
C            0.45610427525125       -0.95860748771736       -0.00591266858238
C            0.94131313155400        0.34311343841052        0.01712785320889
C            0.08439495149189        1.49375172472210       -0.00289424523168
O            0.43625080380692        2.65932106818106        0.00106271956372
N           -1.25944024984821        1.12018533685375       -0.03201125559769
C           -2.25852843288135        2.17930175640814       -0.05185012659559
C           -1.77590874288048       -0.17101381508745       -0.04797664717923
O           -2.97142857312159       -0.36334161615645       -0.07233831072603
N           -0.87605506975801       -1.21998388590990       -0.03586203790579
C           -1.35823900540134       -2.58280942443081       -0.05635726935654
H            3.75607621991577        1.31436557806401        1.06469807825359
H            4.02799107926161        1.13885807720673       -0.68001962633615
H            2.75418790597331        2.23285487604837       -0.07829777135550
H            3.55029954992834       -1.51423392184089        0.04775061912238
H           -1.73697906718251        3.13349440794229       -0.02808383117851
H           -2.86441478581721        2.10142957844453       -0.95434543188681
H           -2.91596908175534        2.08435435491311        0.81197369123330
H           -1.00730878983449       -3.11190813294445        0.82982825120534
H           -0.98267556428404       -3.09461557404076       -0.94272500047719
H           -2.44598748304006       -2.55097922050561       -0.07153104835878
H            0.74262959575357       -4.80121982991612       -0.05200296503455
25
 energy: 19.739061201415 xtb: 6.6.1 (8d0f1dd)
C            3.26877892254040        1.28640082343825        0.08754275696008
N            2.30871883656436        0.21867199889879        0.04079366850218
C            2.55997871369972       -1.10427625713559        0.03386885291531
N            1.47325921365288       -1.84622336706643        0.00464357192125
C            0.45484127668356       -0.95761038586706       -0.00567855682173
C            0.94126960658548        0.34376947476895        0.01762563549215
C            0.08461350611039        1.49445145267773       -0.00225836050326
O            0.43566958419053        2.66007379571329        0.00169792305318
N           -1.25983646518864        1.12006947762540       -0.03170543015676
C           -2.25887431477717        2.17957274628697       -0.05177054188584
C           -1.77669212129904       -0.16928428777643       -0.04792646945102
O           -2.97194972466263       -0.36337343828121       -0.07257942133274
N           -0.87666563985650       -1.21999607297192       -0.03595252478985
C           -1.35830059638613       -2.58258096707260       -0.05668131801739
H            3.75624958968104        1.31366734904953        1.06412167819922
H            4.02791678456569        1.13729937409262       -0.68069553589040
H            2.75483021146816        2.23222379438258       -0.07927481821198
H            3.54868207031116       -1.51631269625346        0.04842642635393
H           -1.73750356320387        3.13387381177932       -0.02776607302879
H           -2.86451652728198        2.10170600908799       -0.95442363905510
H           -2.91655327112954        2.08449836392696        0.81185593722535
H           -1.00718579494183       -3.11199403317505        0.82942667394797
H           -0.98228393179487       -3.09442572888227       -0.94307212755089
H           -2.44608072718676       -2.55154069900005       -0.07200973287648
H            0.75384902959179       -4.79963193607431       -0.05117467885111
25
 energy: 19.723248747878 xtb: 6.6.1 (8d0f1dd)
C            3.26852582355596        1.28605174363060        0.08815439425891
N            2.30876043893274        0.21747465212980        0.04071058549707
C            2.55855843273939       -1.10574352833292        0.03332427282769
N            1.47087005665351       -1.84658887150158        0.00419327112676
C            0.45395880435113       -0.95739344982907       -0.00593917227687
C            0.94130288880794        0.34408519307816        0.01711306074793
C            0.08516661480019        1.49451208301868       -0.00291103762135
O            0.43525128399914        2.66038476023053        0.00107587799494
N           -1.25982442095928        1.11993595999304       -0.03206274549715
C           -2.25860589071732        2.17966550138797       -0.05187155517279
C           -1.77744966909089       -0.16869861003222       -0.04798165002803
O           -2.97259619533213       -0.36322285701316       -0.07229521328306
N           -0.87766788523554       -1.21936136384475       -0.03596638600860
C           -1.35875442096213       -2.58238143583363       -0.05633551627365
H            3.75577104718077        1.31332055716741        1.06490446150975
H            4.02785465993341        1.13782385130613       -0.68009369924876
H            2.75410079071755        2.23179215090185       -0.07833336287080
H            3.54800999630481       -1.51674465406076        0.04750173850445
H           -1.73713221698489        3.13388730390529       -0.02807796119832
H           -2.86451225411704        2.10176166403844       -0.95438030773326
H           -2.91604847080796        2.08468069227354        0.81199078323627
H           -1.00739022018506       -3.11154504518889        0.82988397555670
H           -0.98283692079389       -3.09429758729050       -0.94273345332115
H           -2.44636807731745       -2.55128613022131       -0.07148991715639
H            0.76327047246321       -4.79908397774063       -0.05134654742301
25
 energy: 19.714471175119 xtb: 6.6.1 (8d0f1dd)
C            3.26873871828911        1.28603129981015        0.08762953354266
N            2.30928397540937        0.21671098667698        0.04080599065273
C            2.55743192285982       -1.10671187393990        0.03383424399492
N            1.46971995993532       -1.84686365894817        0.00467380113031
C            0.45354935893593       -0.95710040190870       -0.00572817339352
C            0.94131697943896        0.34443267137275        0.01730850087894
C            0.08534529591901        1.49456920056828       -0.00232213152481
O            0.43494354311363        2.66064871345478        0.00170153961944
N           -1.25982593632272        1.12016828169756       -0.03183650709422
C           -2.25865351669563        2.17975900440697       -0.05178414077949
C           -1.77786757674199       -0.16887322156280       -0.04793695006908
O           -2.97304616561877       -0.36279733463698       -0.07253200031609
N           -0.87833542112922       -1.21856198266210       -0.03588523337789
C           -1.35878617161991       -2.58234487158720       -0.05666114958608
H            3.75610661490165        1.31353218415410        1.06427370043335
H            4.02792525840736        1.13745919845734       -0.68071369965942
H            2.75399946842362        2.23147828047046       -0.07915445642309
H            3.54785594002559       -1.51626947412552        0.04812099119211
H           -1.73741893940359        3.13409556669118       -0.02780330921200
H           -2.86441011671864        2.10183816357606       -0.95441969524758
H           -2.91636132145394        2.08465519087816        0.81190046220499
H           -1.00738021967051       -3.11145261550839        0.82948111316403
H           -0.98247508863715       -3.09385367148514       -0.94308171614806
H           -2.44637211227064       -2.55155554670905       -0.07199904819004
H            0.76693021855957       -4.79996548696878       -0.05083776964480
25
 energy: 19.711425759504 xtb: 6.6.1 (8d0f1dd)
C            3.26872361296498        1.28619357318069        0.08818149345545
N            2.30972036762157        0.21643638656563        0.04077848542407
C            2.55694445064092       -1.10711819689078        0.03334347531927
N            1.46942829050047       -1.84685993063847        0.00424482058344
C            0.45351275234325       -0.95671518477765       -0.00602238166882
C            0.94133535030374        0.34464022728815        0.01683056522300
C            0.08528462720900        1.49460250566616       -0.00294788903827
O            0.43497854288579        2.66072148521064        0.00107180115955
N           -1.25973610588901        1.12044143053621       -0.03213913763673
C           -2.25861280245177        2.17979942384633       -0.05187468296133
C           -1.77786446567254       -0.16944288157464       -0.04797848367364
O           -2.97317790733908       -0.36237035588559       -0.07226680768482
N           -0.87847439179691       -1.21814402604812       -0.03586059871783
C           -1.35864664496909       -2.58238316777448       -0.05629173551497
H            3.75580773520933        1.31320967560387        1.06494973909319
H            4.02802941177152        1.13787036600559       -0.68004431923204
H            2.75362556736837        2.23136519963792       -0.07830974701431
H            3.54797415940935       -1.51566388786083        0.04761930252785
H           -1.73738979555161        3.13413104116101       -0.02809978774041
H           -2.86460913634919        2.10177885337581       -0.95435463865069
H           -2.91609646257708        2.08469632594105        0.81198915915104
H           -1.00692698110082       -3.11109761901528        0.82990583527103
H           -0.98241669431403       -3.09384689475860       -0.94264608287172
H           -2.44626003123977       -2.55160337545005       -0.07141807655072
H            0.76706121895879       -4.80161237117255       -0.05162641210431
