25
 energy: 0.000000000000 xtb: 6.6.1 (8d0f1dd)
C            3.23720163006194        1.16630919979326        0.08434469647475
N            2.29877817382611        0.07527477071623        0.03981603040599
C            2.58028210190900       -1.21425402444508        0.03006176031096
N            1.43813958087363       -1.93419271955128        0.00098261760884
C            0.39035688448383       -1.05887472636071       -0.00790371836672
C            0.93510056364412        0.21347819449412        0.01709077491437
C            0.09450143893243        1.40504303904423       -0.00410947031874
O            0.49712751527797        2.54126714362870       -0.00342325688240
N           -1.25076640035757        1.06271879480407       -0.03085478223738
C           -2.21907211982101        2.15522099834493       -0.05001256985998
C           -1.81739487048744       -0.20012725993278       -0.04692818574614
O           -2.99983886758376       -0.37846417018721       -0.07008878229737
N           -0.92618586207120       -1.30210215599479       -0.03682761578324
C           -1.46982264913417       -2.64643102187190       -0.06029820460571
H            3.71247264356769        1.21471455160235        1.06488849150277
H            4.00791497605742        1.03430808813993       -0.67357694370751
H            2.69910007168542        2.09770118228144       -0.09130154882931
H            3.56654120610678       -1.63682992603973        0.04233140067262
H           -1.67107961066214        3.09322851271934       -0.02552706933167
H           -2.82428953597071        2.09428624779827       -0.95318082946668
H           -2.87644029173232        2.07745725625962        0.81450067533302
H           -1.17061996399332       -3.19584890659852        0.83242232437030
H           -1.14560257411436       -3.17511610292205       -0.95688275822323
H           -2.55549792440841       -2.55659984320617       -0.07459039797972
H            1.38130855184625       -2.94313852034425       -0.01389874181052
25
 energy: -2.049985908185 xtb: 6.6.1 (8d0f1dd)
C            3.24122749676859        1.18272558035677        0.08624076628266
N            2.30408344491527        0.08788615204151        0.03800388758201
C            2.58202584546177       -1.25358304660431        0.03000784675684
N            1.40697203360882       -1.99256762017838       -0.00029894610024
C            0.40117990864926       -1.06294408649788       -0.00838055150577
C            0.93089927938453        0.22313681882807        0.01555435838354
C            0.10209182354139        1.40724906055013       -0.00422433454368
O            0.49445489000242        2.57536335550507       -0.00235850046461
N           -1.26021303227698        1.06462543678102       -0.03118696176805
C           -2.23013256005031        2.15551278355334       -0.05039540912888
C           -1.81608610876479       -0.18948311011291       -0.04768039509198
O           -3.01133326934835       -0.37653985365493       -0.07116024219980
N           -0.92637699590273       -1.28930438668163       -0.03701299068503
C           -1.44502334768788       -2.63348769937959       -0.05934106524591
H            3.72624451644677        1.23888230635962        1.06511577082668
H            4.01203378638600        1.06000865840083       -0.67628823597292
H            2.70770954768973        2.11890669548437       -0.08562297235793
H            3.56712100216764       -1.65682232515707        0.04362531672182
H           -1.68337493424133        3.09561398063215       -0.02611037701747
H           -2.83720330558954        2.09652200642658       -0.95364149658894
H           -2.88942387826679        2.07971298858532        0.81399379006610
H           -1.12383410925020       -3.17392298466292        0.83320664498293
H           -1.09881728775885       -3.15430328100410       -0.95426671914548
H           -2.52994181573087       -2.55672295302739       -0.07385941105374
H            1.28793173778264       -3.05743587437167       -0.01688587658485
25
 energy: 5.584226242875 xtb: 6.6.1 (8d0f1dd)
C            3.24502881785237        1.18855841782806        0.08744543660481
N            2.30780363924800        0.08970889287201        0.03532344728089
C            2.57495636931751       -1.28905165624028        0.03068915482430
N            1.37229472841076       -2.04388020112372       -0.00114804793307
C            0.41058376415478       -1.06358602085286       -0.00897101907780
C            0.92809912623865        0.22818967986102        0.01382091299067
C            0.10883158104422        1.40295996797320       -0.00402362646797
O            0.48162560205845        2.58512516740763       -0.00038514443894
N           -1.27087524395107        1.07197216985921       -0.03170492826207
C           -2.24146821565313        2.16131210723795       -0.05098446408060
C           -1.81172739164744       -0.17521626956796       -0.04850833827949
O           -3.01034131994972       -0.37530571661265       -0.07269909022968
N           -0.92536482002323       -1.26769755379983       -0.03721598611098
C           -1.41154663010992       -2.61707345813675       -0.05808340876017
H            3.73945846596155        1.25685534567891        1.06341232075399
H            4.01603759127190        1.08532594908251       -0.68026636722041
H            2.71195785564797        2.12889682760191       -0.07804584346112
H            3.56422257135896       -1.66627136863944        0.04580366776061
H           -1.69899458841486        3.10454368303637       -0.02689988466409
H           -2.85085370453729        2.10062702515888       -0.95347883857682
H           -2.90299353616741        2.08386075011145        0.81246539467736
H           -1.06610399771464       -3.14609029545109        0.83462596044378
H           -1.04097654334120       -3.12815719868304       -0.95119421075592
H           -2.49652228869453       -2.56669036643543       -0.07304716390614
H            1.17908283557558       -3.15988727599406       -0.01989603696385
25
 energy: 10.636825493330 xtb: 6.6.1 (8d0f1dd)
C            3.24612852575655        1.18832066754396        0.08763199496730
N            2.30928535653835        0.08826847391275        0.03388226032200
C            2.56973047912520       -1.30036152092361        0.03155637919513
N            1.35885252949492       -2.06124615521574       -0.00119756721187
C            0.41314241199114       -1.06527768865447       -0.00932890611363
C            0.92777241071070        0.22755802499250        0.01309731027328
C            0.11133638883866        1.40211267969373       -0.00365545000374
O            0.47491337561456        2.58448324781389        0.00099867504241
N           -1.27551435631696        1.07864742470219       -0.03212438352543
C           -2.24576077695640        2.16704619928437       -0.05142145553163
C           -1.81155311326312       -0.16942847009643       -0.04910387685562
O           -3.00938901239559       -0.37637604990501       -0.07385143385235
N           -0.92543205307011       -1.25712178794366       -0.03739635043830
C           -1.39618116460993       -2.61088307910542       -0.05734086855251
H            3.74425341687823        1.25865422412888        1.06178184516851
H            4.01579586425206        1.09415481965065       -0.68290300155319
H            2.71112138598026        2.12947119974574       -0.07361654734174
H            3.56437469001702       -1.66397173519531        0.04705240896131
H           -1.70628044824110        3.11169004354816       -0.02739624928072
H           -2.85573504086433        2.10431912771660       -0.95359537905573
H           -2.90779554517349        2.08762093128305        0.81169614899814
H           -1.04006274016610       -3.13164454539873        0.83643322531804
H           -1.01468405399035       -3.11486763599890       -0.95027822162235
H           -2.48112377847743       -2.57790033207017       -0.07264693709041
H            1.13501991626347       -3.20423946133703       -0.02123972406959
25
 energy: 12.438096739192 xtb: 6.6.1 (8d0f1dd)
C            3.24638034199702        1.18856894524837        0.08766916987772
N            2.31010556052065        0.08838477363124        0.03329773273863
C            2.56879327537171       -1.30003458431576        0.03243949499206
N            1.35803360463412       -2.06308139107169       -0.00096203875785
C            0.41384515608165       -1.06725664567460       -0.00954647819322
C            0.92822968987568        0.22601668640968        0.01271121893617
C            0.11226905517692        1.40237643669215       -0.00366378564298
O            0.47299983470889        2.58302529891465        0.00157587791394
N           -1.27618546062206        1.08091556624815       -0.03240019848815
C           -2.24616986785651        2.16872823673195       -0.05156306064077
C           -1.81225563112540       -0.16888397316593       -0.04933236956195
O           -3.00921343408868       -0.37752864234959       -0.07419723575915
N           -0.92566208131737       -1.25449095576611       -0.03751982412230
C           -1.39432317413264       -2.60972843332889       -0.05713261252148
H            3.74534796534902        1.25766201349900        1.06118892098599
H            4.01504346846297        1.09596185172826       -0.68373568229857
H            2.71061540472703        2.12962637681436       -0.07220844653890
H            3.56614222139702       -1.65799211464347        0.04732909963754
H           -1.70763071485744        3.11363643298729       -0.02756778648884
H           -2.85619562072490        2.10556740006420       -0.95370909586362
H           -2.90810302668087        2.08890527987658        0.81165613890070
H           -1.03723581234811       -3.12787242003555        0.83717599537790
H           -1.01172424488528       -3.11147180876366       -0.95028591443187
H           -2.47876336957465       -2.58118156513499       -0.07254427568660
H            1.12787152784744       -3.22082416242359       -0.02164094821711
25
 energy: 14.014517721909 xtb: 6.6.1 (8d0f1dd)
C            3.24658722267302        1.18902656283289        0.08769206595970
N            2.31067884137372        0.08904247301566        0.03275367327662
C            2.56862710901911       -1.29700709256050        0.03393937414879
N            1.36013398280492       -2.06070058159101       -0.00051716907021
C            0.41401922033482       -1.06896581032719       -0.00981530989052
C            0.92856231991183        0.22470903257935        0.01227291656783
C            0.11294071142858        1.40317055609122       -0.00381454616935
O            0.47219844335184        2.58224433297335        0.00201783890740
N           -1.27591669226001        1.08205304407590       -0.03268473454921
C           -2.24592179460464        2.16915563750841       -0.05163116869435
C           -1.81315036050345       -0.16928616939785       -0.04943219506878
O           -3.00930954594530       -0.37802799418820       -0.07423396168548
N           -0.92597409679265       -1.25313178619044       -0.03765661954871
C           -1.39527819543089       -2.60949912356481       -0.05708254958815
H            3.74572707659413        1.25666416007182        1.06095046965993
H            4.01461540247383        1.09630767069801       -0.68404784639717
H            2.71089220291418        2.13004700092940       -0.07160996959121
H            3.56775565570654       -1.65137757084071        0.04687829207292
H           -1.70810811215976        3.11432810572260       -0.02764715607515
H           -2.85602285653497        2.10602962652455       -0.95376084067322
H           -2.90771202459881        2.08935260801014        0.81175597224029
H           -1.03869228141052       -3.12652389520240        0.83746050526474
H           -1.01311976742910       -3.11030287039916       -0.95037691433908
H           -2.47936696830675       -2.58204437884993       -0.07253397176876
H            1.12804917532652       -3.23623493574907       -0.02184225884160
25
 energy: 14.730122002294 xtb: 6.6.1 (8d0f1dd)
C            3.24662660855437        1.18936506779496        0.08770037728443
N            2.31063224116735        0.08959303571236        0.03258559650780
C            2.56881973978980       -1.29507083569062        0.03532118177219
N            1.36205430996169       -2.05744086116334       -0.00021596670612
C            0.41372626433541       -1.06884215968892       -0.00996552633710
C            0.92838276824715        0.22508937699930        0.01211369078057
C            0.11291888790316        1.40384395373754       -0.00392021686128
O            0.47255855268033        2.58295247440099        0.00204599317007
N           -1.27551493541697        1.08181256757221       -0.03278000719305
C           -2.24572541287048        2.16869291557971       -0.05161836922984
C           -1.81339510710289       -0.16964529480155       -0.04938138731584
O           -3.00950022611929       -0.37751982473843       -0.07402664843402
N           -0.92607760052512       -1.25320699490815       -0.03771782787677
C           -1.39641343307161       -2.60977596538850       -0.05715451823549
H            3.74541447708174        1.25679699597023        1.06115431475406
H            4.01486324243025        1.09583552691826       -0.68378631088304
H            2.71144104438837        2.13049048969090       -0.07195732605812
H            3.56774116002120       -1.65011931356498        0.04574862812152
H           -1.70803644628400        3.11401271777081       -0.02761293151217
H           -2.85588371473329        2.10577460979568       -0.95374023055925
H           -2.90749851229291        2.08904038641441        0.81181809889883
H           -1.04026135995197       -3.12723640046320        0.83727778174709
H           -1.01471354980215       -3.11097425274818       -0.95040409214988
H           -2.48058467106359       -2.58092903064988       -0.07258052087826
H            1.13064034060964       -3.24351058237954       -0.02186988665903
25
 energy: 15.125603514415 xtb: 6.6.1 (8d0f1dd)
C            3.24659696350193        1.18968754272143        0.08772591016816
N            2.31042215155234        0.08996988724155        0.03265858534815
C            2.56900836234044       -1.29439205485692        0.03682073410178
N            1.36309535364717       -2.05492058312032       -0.00004628038314
C            0.41339424744764       -1.06796489155790       -0.01007583890104
C            0.92808522851042        0.22624334977234        0.01212921303661
C            0.11261391493014        1.40427671736269       -0.00397192531590
O            0.47314414596713        2.58398524704779        0.00185495661761
N           -1.27537102115501        1.08130594121699       -0.03278343380889
C           -2.24573658056617        2.16828898421649       -0.05159119093487
C           -1.81323350420956       -0.16971980014255       -0.04931634505502
O           -3.00958307068717       -0.37687580882333       -0.07382072540064
N           -0.92605873737019       -1.25376710509948       -0.03776808077975
C           -1.39687900084739       -2.61004225735464       -0.05723635060940
H            3.74500699832958        1.25748118688711        1.06143968955234
H            4.01525457977125        1.09552028884289       -0.68340232187448
H            2.71174230915380        2.13089669938439       -0.07247103785265
H            3.56712706545073       -1.65153659893536        0.04416795618403
H           -1.70784622460720        3.11359717130860       -0.02755841922405
H           -2.85589768071915        2.10550854030083       -0.95371787825428
H           -2.90753183195237        2.08871815084795        0.81182858400473
H           -1.04088860000022       -3.12815193731403        0.83706147594950
H           -1.01537491703182       -3.11183166014047       -0.95040827162159
H           -2.48121558997557       -2.57975320571571       -0.07262333910115
H            1.13234010645547       -3.24749520191830       -0.02186176969876
25
 energy: 15.229950844801 xtb: 6.6.1 (8d0f1dd)
C            3.24657741912664        1.18986572838311        0.08776367272484
N            2.31032019662455        0.09006763186987        0.03285117522385
C            2.56906488469919       -1.29458358496812        0.03799874454799
N            1.36314952052171       -2.05419755197858       -0.00001781082255
C            0.41328174865788       -1.06735601593325       -0.01016376898232
C            0.92798993150178        0.22701104058182        0.01219530583765
C            0.11239100553112        1.40435606971903       -0.00399754366776
O            0.47339300768737        2.58442667250544        0.00166626670746
N           -1.27546060509983        1.08109466740866       -0.03275975147063
C           -2.24584027749170        2.16825658337258       -0.05157857635762
C           -1.81299554899142       -0.16958677088046       -0.04931197008828
O           -3.00951930139345       -0.37667636153813       -0.07376332850026
N           -0.92601223375934       -1.25419674277500       -0.03783266262172
C           -1.39676758283546       -2.61011241889434       -0.05727190027325
H            3.74487151884629        1.25797009893951        1.06155539459222
H            4.01540847877605        1.09555257738243       -0.68322123219930
H            2.71170511169255        2.13105720036916       -0.07267843902251
H            3.56673605850680       -1.65294117587949        0.04290455871744
H           -1.70770578541032        3.11344702985145       -0.02753798300327
H           -2.85596221071342        2.10547612265682       -0.95371500721071
H           -2.90763374880246        2.08866720202807        0.81181705930805
H           -1.04078635909110       -3.12847880627126        0.83699913661733
H           -1.01528741497750       -3.11217797102466       -0.95040636323949
H           -2.48117201813397       -2.57944117665774       -0.07263702298849
H            1.13246887246419       -3.24847144609489       -0.02182405768137
