25
 energy: 0.000000000000 xtb: 6.6.1 (8d0f1dd)
C            3.23720132972391        1.16630909158653        0.08434468864950
N            2.29877796055224        0.07527476373246        0.03981602671198
C            2.58028186251803       -1.21425391179017        0.03006175752192
N            1.43813944744728       -1.93419254010258        0.00098261751768
C            0.39035684826767       -1.05887462812143       -0.00790371763344
C            0.93510047688824        0.21347817468824        0.01709077332874
C            0.09450143016486        1.40504290868848       -0.00410946993748
O            0.49712746915594        2.54126690785742       -0.00342325656480
N           -1.25076628431515        1.06271869620815       -0.03085477937476
C           -2.21907191394203        2.15522079838987       -0.05001256521996
C           -1.81739470187490       -0.20012724136556       -0.04692818139228
O           -2.99983858926755       -0.37846413507442       -0.07008877579474
N           -0.92618577614240       -1.30210203518959       -0.03682761236648
C           -1.46982251276835       -2.64643077634382       -0.06029819901142
H            3.71247229913541        1.21471443890471        1.06488839270555
H            4.00791460421487        1.03430799217987       -0.67357688121503
H            2.69909982127087        2.09770098766290       -0.09130154035862
H            3.56654087521359       -1.63682977417947        0.04233139674524
H           -1.67107945562430        3.09322822573871       -0.02552706696334
H           -2.82428927394145        2.09428605349656       -0.95318074103337
H           -2.87644002486466        2.07745706351925        0.81450059976605
H           -1.17061985538665       -3.19584861009707        0.83242224714061
H           -1.14560246782873       -3.17511580834413       -0.95688266944647
H           -2.55549768731684       -2.55659960601237       -0.07459039105944
H            1.38130842369251       -2.94313824728853       -0.01389874052104
25
 energy: -6.094689048388 xtb: 6.6.1 (8d0f1dd)
C            3.24064248284952        1.17233090358127        0.08634751854449
N            2.30485314033550        0.09474369630679        0.03445722071384
C            2.59431266374974       -1.25535893762639        0.03198583966409
N            1.40956504179617       -1.96316806630322        0.00057693474077
C            0.40137081370934       -1.06505636791117       -0.00842357529983
C            0.92080300164078        0.22286883745381        0.01469834294234
C            0.11636535088418        1.38787318024537       -0.00484359733136
O            0.49357194437196        2.56241164446884       -0.00411110306802
N           -1.26818398936581        1.05423921608056       -0.03125050161984
C           -2.22269474855588        2.15123485543589       -0.04974739368380
C           -1.81525925416396       -0.19270682790293       -0.04731954242853
O           -3.01400815385785       -0.38239763431565       -0.07041705091417
N           -0.93701074388220       -1.29535607109436       -0.03719583714318
C           -1.46461162827027       -2.63882605246866       -0.06022635331582
H            3.71995449343726        1.22273301381464        1.06794129799466
H            4.01175150521725        1.04213883226361       -0.67507716653423
H            2.70160911942455        2.10298341819020       -0.08936266922115
H            3.57323971191527       -1.66158465360704        0.04324791809843
H           -1.66832400334397        3.08731121937225       -0.02553999245889
H           -2.82869335459976        2.09531047044768       -0.95367888353037
H           -2.88028289571164        2.07853548805097        0.81592521488247
H           -1.15706523179992       -3.18913065886610        0.83224665331927
H           -1.13209631140852       -3.16885916333011       -0.95614317561295
H           -2.54960521658804       -2.55514112867786       -0.07466788823725
H            1.31878900309309       -2.98134348832438       -0.01500225479536
25
 energy: -5.014687421476 xtb: 6.6.1 (8d0f1dd)
C            3.24092107717016        1.17211796283493        0.08671315601645
N            2.30653608171728        0.08786504545474        0.03164095342113
C            2.58790550702636       -1.27186031875181        0.03093025191852
N            1.39649570651653       -1.98718740345374        0.00020688780534
C            0.40321822738201       -1.06812585740657       -0.00952962180527
C            0.92213513251225        0.22073158786824        0.01236263585712
C            0.11754101356242        1.38835340216803       -0.00576581479342
O            0.49157193973035        2.56446182293993       -0.00455864524706
N           -1.26900707316160        1.05654995163008       -0.03170339333336
C           -2.22523775422451        2.15202577427337       -0.04957215633861
C           -1.81600867634130       -0.19009822326926       -0.04786556099662
O           -3.01495823575456       -0.38144424432257       -0.07061465475632
N           -0.93632053636566       -1.29008923781977       -0.03765007840477
C           -1.45764948513645       -2.63527561197479       -0.06010836052766
H            3.72165481596347        1.22602254652786        1.06781902798467
H            4.01290095288990        1.04761763210561       -0.67488809001681
H            2.70323206723161        2.10534186503903       -0.08738412285228
H            3.57081762362641       -1.66811040586069        0.04695123966589
H           -1.67131401529596        3.08806295649376       -0.02553606816162
H           -2.83189219907265        2.09611017091275       -0.95324383552508
H           -2.88264909941924        2.07913314584047        0.81642826223399
H           -1.14476886260748       -3.18227866494928        0.83271761424354
H           -1.11997114954737       -3.16256370246466       -0.95588879646371
H           -2.54244285005701       -2.55641047267504       -0.07455525580894
H            1.26009348089678       -3.01826769394995       -0.01505374480935
25
 energy: -2.890299964611 xtb: 6.6.1 (8d0f1dd)
C            3.24110254087730        1.17228079588255        0.08696912123790
N            2.30796639586472        0.08195629639994        0.02979526991084
C            2.58224125521040       -1.28677941453332        0.03012436658646
N            1.38412702426036       -2.01102091431128       -0.00019285801048
C            0.40532570936812       -1.07222783931204       -0.01008344644609
C            0.92439700668273        0.21731743838027        0.01145209099450
C            0.11963490889644        1.38904283451621       -0.00491298388267
O            0.49219016016294        2.56577867051103       -0.00318758157422
N           -1.26863758964702        1.06010354083387       -0.03152654729365
C           -2.22765781995379        2.15356443971266       -0.04994110452210
C           -1.81532925858957       -0.18664731916972       -0.04825670604686
O           -3.01426547627838       -0.37893243761000       -0.07213887413509
N           -0.93533300109660       -1.28498692853874       -0.03758099629956
C           -1.45144300960197       -2.63187750829484       -0.05991025844405
H            3.72373268665838        1.22859778063440        1.06725639061480
H            4.01248119347373        1.05369966144717       -0.67631742538249
H            2.70329290111607        2.10735536397694       -0.08411664107676
H            3.57323390287720       -1.66241204400845        0.04608342862882
H           -1.67709321126797        3.09133192696578       -0.02566975163212
H           -2.83421598319663        2.09655181795904       -0.95373520728572
H           -2.88601883719532        2.07952105931566        0.81539190509643
H           -1.13390129221106       -3.17653529032099        0.83292030691800
H           -1.10912719176481       -3.15680315904427       -0.95551865368746
H           -2.53602495041902       -2.55765186320097       -0.07440564744936
H            1.20449095119884       -3.05687921014909       -0.01445360123995
25
 energy: 0.460509829037 xtb: 6.6.1 (8d0f1dd)
C            3.24244977006486        1.17403548782177        0.08779484633819
N            2.30894960380713        0.07861267364725        0.03026137853126
C            2.57621014625296       -1.29968008451789        0.03148724942141
N            1.37230601249628       -2.03481921562072       -0.00128442473803
C            0.40783291260018       -1.07645349235392       -0.01024009841709
C            0.92620435930337        0.21569291610534        0.01132530266930
C            0.11966001956555        1.39100503134674       -0.00493320999316
O            0.49088343524736        2.56790622338085       -0.00288103214537
N           -1.26883419517576        1.06286897707949       -0.03178752194103
C           -2.22954556312699        2.15459273670925       -0.05017074537903
C           -1.81412773104059       -0.18462481575136       -0.04883152763613
O           -3.01262671740928       -0.37973331525564       -0.07393302724475
N           -0.93383950440549       -1.28067459453574       -0.03757636041330
C           -1.44570523030961       -2.62911397375677       -0.05914248125567
H            3.72671600776193        1.23400150053380        1.06718960784115
H            4.01355954697933        1.06046008489723       -0.67658351704977
H            2.70578064083941        2.11135593786155       -0.08097576904976
H            3.57473546440984       -1.65593682206375        0.04629334798391
H           -1.67996639571975        3.09286152759409       -0.02596022885214
H           -2.83618767777172        2.09702266526895       -0.95391428764788
H           -2.88788840851689        2.07997516256191        0.81520604468458
H           -1.12426615912282       -3.17158556757249        0.83384378047830
H           -1.09995616106294       -3.15274146892970       -0.95438866705799
H           -2.52994335070108       -2.55828910760287       -0.07343174531824
H            1.16048981609080       -3.10293495333302       -0.01994305167065
25
 energy: 5.147366269449 xtb: 6.6.1 (8d0f1dd)
C            3.24326489775941        1.17612992062418        0.08844058973124
N            2.31037431764815        0.07566372873339        0.03009960549646
C            2.57102989175534       -1.31160438235114        0.03281429042808
N            1.36360196086821       -2.05872513073972       -0.00209622937282
C            0.41136252457216       -1.08118340082650       -0.01058172577681
C            0.92827076378672        0.21411807512231        0.01122055651975
C            0.12036845646921        1.39295534310156       -0.00403142452640
O            0.48884477457747        2.57037453598639       -0.00115659942945
N           -1.26901563618368        1.06669392285080       -0.03159207676005
C           -2.23246356507776        2.15644822722277       -0.05062610059235
C           -1.81252150566986       -0.18163923439018       -0.04866291222248
O           -3.01061932451044       -0.37988996894779       -0.07383693551008
N           -0.93184653937292       -1.27596241489666       -0.03754910102349
C           -1.43917812838178       -2.62619467956413       -0.05879390383244
H            3.72967112795065        1.23820744077060        1.06681496535228
H            4.01377771466775        1.06787104579019       -0.67751923140879
H            2.70611429693765        2.11483981671288       -0.07543200473774
H            3.57627836718941       -1.65010862078629        0.04359138850247
H           -1.68731578865133        3.09729487362631       -0.02667085105189
H           -2.83904377948813        2.09669662608619       -0.95428361383175
H           -2.89148156323552        2.08026942947507        0.81415017605728
H           -1.11347206654863       -3.16673562652793        0.83398089709583
H           -1.08923490151557       -3.14821530690973       -0.95350667820777
H           -2.52309227649353       -2.56028257355519       -0.07309808367051
H            1.14461070018816       -3.16237774656757       -0.02277682588890
25
 energy: 21.803620554437 xtb: 6.6.1 (8d0f1dd)
C            3.24970480676232        1.19800216578726        0.08697792172910
N            2.30947965944826        0.10003708477770        0.03543752673176
C            2.54595602886610       -1.23839834644195        0.03599950695191
N            1.42331450243401       -1.95182639787918        0.00592458707457
C            0.42533039439258       -1.04565649982313       -0.00843539175904
C            0.93958057060725        0.24843877865734        0.01215866382987
C            0.10425237003811        1.42145190492884       -0.00407537491707
O            0.47640817842255        2.58076127726070        0.00012270459590
N           -1.25603152440505        1.08110041157052       -0.03172915588478
C           -2.23361277113149        2.15997406248542       -0.05007264294254
C           -1.80059493192782       -0.19425924760915       -0.04935098751976
O           -2.99728838470433       -0.37255600525528       -0.07480785527355
N           -0.91690683811531       -1.26398596293688       -0.03768300309821
C           -1.43160993118386       -2.61930765187071       -0.05946460934318
H            3.73312511362150        1.24691636066239        1.06420130819950
H            4.01421624528423        1.07594954982014       -0.67964309075024
H            2.71371333274856        2.13465854060607       -0.07491773453143
H            3.55556533208368       -1.61365102944842        0.04448564004744
H           -1.69373545082593        3.10318398125983       -0.02547698124874
H           -2.84016731890458        2.09690502298452       -0.95318115558042
H           -2.89203260022380        2.07899372721130        0.81443851867446
H           -1.09606692326677       -3.15808849828237        0.82808599081734
H           -1.07054450891954       -3.13898339025120       -0.94847998147691
H           -2.51535751958546       -2.55908280151262       -0.07470663563915
H            1.02369522052562       -3.63918892937149       -0.03410584962687
25
 energy: 20.392152533085 xtb: 6.6.1 (8d0f1dd)
C            3.25129908509806        1.20436634175249        0.08682641613643
N            2.30961395227415        0.10660963806331        0.03591782464249
C            2.54429670829867       -1.23224798994618        0.03988079837671
N            1.42429496820223       -1.95561424974220        0.00964110323012
C            0.42915213363567       -1.04277339624174       -0.00752964401780
C            0.94005937942924        0.25340578754200        0.01214280626243
C            0.10240878898840        1.42538117676829       -0.00303747145050
O            0.47126412282845        2.58478510888736        0.00335851681992
N           -1.25720221443632        1.08515768513998       -0.03174404248129
C           -2.23659494254464        2.16234514695254       -0.05097524456902
C           -1.79901904399745       -0.19098512909768       -0.04920786948773
O           -2.99505681160440       -0.37293347987272       -0.07446238032562
N           -0.91395657769657       -1.25867363340412       -0.03742011305389
C           -1.42414878649697       -2.61580623470340       -0.05858464880152
H            3.73624767688163        1.25234060956404        1.06359507893164
H            4.01492586047885        1.08246283648691       -0.68083909651975
H            2.71715828050530        2.14267029683199       -0.07483710535781
H            3.55616207135935       -1.60282772823897        0.04559942472434
H           -1.69868549152768        3.10671832674846       -0.02653058126335
H           -2.84246956140908        2.09740858094115       -0.95442934446592
H           -2.89594188911958        2.08046122932106        0.81281459516889
H           -1.08399143432210       -3.15299127735833        0.82829192602227
H           -1.06133154712567       -3.13422806483171       -0.94775399933535
H           -2.50796430492425       -2.56143103831935       -0.07229157021123
H            0.99975272228055       -3.72066261513469       -0.04194217600234
25
 energy: 19.368749774335 xtb: 6.6.1 (8d0f1dd)
C            3.25343703272325        1.21219443717421        0.08643215630913
N            2.30976446429538        0.11620448946701        0.03587704779293
C            2.54435775390241       -1.22180099335218        0.04302759903909
N            1.42810355127854       -1.95049866440162        0.01214348142165
C            0.43240089969603       -1.03648289110160       -0.00764746853122
C            0.94039620593895        0.26094428891953        0.01133213241828
C            0.10081742671780        1.43099007150001       -0.00289945372179
O            0.46597559887708        2.59108473279133        0.00505304378846
N           -1.25836080002262        1.08958834544475       -0.03179674536817
C           -2.24003365349388        2.16488656082508       -0.05102779462801
C           -1.79756772784732       -0.18735565608531       -0.04914594513757
O           -2.99304485190302       -0.37250769413324       -0.07377765675605
N           -0.91073965856757       -1.25281385124418       -0.03799081300006
C           -1.41573739766431       -2.61154295894219       -0.05862455213805
H            3.74016154271368        1.25842451631312        1.06247449028844
H            4.01652816368694        1.09021757337920       -0.68177422400021
H            2.72144846980798        2.15182275696774       -0.07476477002733
H            3.55737210055873       -1.59006582548113        0.04718923601678
H           -1.70483747609167        3.11094287359745       -0.02694013861188
H           -2.84608734801866        2.09816967706473       -0.95427433705441
H           -2.89978085329933        2.08179090483593        0.81242282844491
H           -1.07153622930764       -3.14588660621799        0.82853217643450
H           -1.04930344147746       -3.12780827595357       -0.94772711157693
H           -2.49981701803343       -2.56295120474213       -0.07219739102427
H            0.97278939023014       -3.81260521795475       -0.04237062017012
25
 energy: 18.896346459844 xtb: 6.6.1 (8d0f1dd)
C            3.25547163059191        1.22013111936297        0.08622528167581
N            2.30922421022419        0.12722151743769        0.03693651996369
C            2.54503089012273       -1.20919558410675        0.04349977720350
N            1.43324960057164       -1.94222892179051        0.01587324402095
C            0.43580832614577       -1.02861849566542       -0.00608548786860
C            0.94021308995116        0.26975487650630        0.01159077325036
C            0.09805320614701        1.43704526703654       -0.00376017691186
O            0.45856178498217        2.59806097119381        0.00379510539160
N           -1.25974423307243        1.09311208767757       -0.03247889963567
C           -2.24261084463985        2.16697855606324       -0.05078986248543
C           -1.79524934631333       -0.18542590863371       -0.04967080973242
O           -2.99038484444525       -0.37333923887852       -0.07455525414715
N           -0.90705598892407       -1.24764881900515       -0.03780911616326
C           -1.40722581328907       -2.60800832176615       -0.05862773959961
H            3.74538067414824        1.26197571841462        1.06085237726893
H            4.01639516915131        1.09585252642475       -0.68384739692059
H            2.72601177608521        2.16135711227511       -0.07368552843042
H            3.55882856332982       -1.57565653296322        0.04533446351086
H           -1.70747428086294        3.11325814461388       -0.02653647633373
H           -2.84915352649901        2.09975065376809       -0.95370480757043
H           -2.90175987229639        2.08264478525964        0.81307695933966
H           -1.06098214422755       -3.13986050549450        0.82929993904540
H           -1.03639101948145       -3.12177495846913       -0.94745364572048
H           -2.49170638235022       -2.56577100319296       -0.07374231002745
H            0.94366216025029       -3.90744845712971       -0.04465473748028
25
 energy: 18.806993841655 xtb: 6.6.1 (8d0f1dd)
C            3.25556771959759        1.22899184980462        0.08727362427453
N            2.30735231891618        0.13831143192341        0.03961244485750
C            2.54515686861712       -1.19625157849612        0.04373823992904
N            1.43797406641762       -1.93252864077614        0.01472034023645
C            0.43861346537590       -1.02008305229694       -0.00621411180287
C            0.93945307027721        0.27885284607990        0.01178877909604
C            0.09559055884096        1.44370898959262       -0.00430320760167
O            0.45244443601921        2.60556483109982        0.00364984652820
N           -1.26069018507580        1.09713832394419       -0.03300284209713
C           -2.24486931327758        2.16954813653046       -0.05130579889256
C           -1.79288432674246       -0.18326079428919       -0.04952287997478
O           -2.98785035258181       -0.37312244718953       -0.07401275786009
N           -0.90364023873503       -1.24238405221726       -0.03779369160379
C           -1.39841596719754       -2.60464797751082       -0.05756794329343
H            3.74690383762656        1.26933175798794        1.06127511690740
H            4.01543051616406        1.10402694478407       -0.68408246423407
H            2.72754204857545        2.17069467238425       -0.07230145334337
H            3.55945505861167       -1.56153446237118        0.04480730964710
H           -1.71108380789146        3.11679859709398       -0.02731674625135
H           -2.85148604842737        2.10076712649669       -0.95404003350912
H           -2.90388062008231        2.08406118804865        0.81256892378321
H           -1.04831043356885       -3.13333981621565        0.83084037673990
H           -1.02406877426445       -3.11620801582996       -0.94626979563172
H           -2.48346349316337       -2.56959087861445       -0.07257856071475
H            0.91337705715981       -4.01406908218265       -0.04943812548054
25
 energy: 18.920837211166 xtb: 6.6.1 (8d0f1dd)
C            3.25693938353259        1.23816632186648        0.08706180690347
N            2.30695004799741        0.15062224853283        0.04024632781874
C            2.54554001920537       -1.18200688424804        0.04314363078894
N            1.44286651587122       -1.92069690310172        0.01391004834724
C            0.44121703170899       -1.01034717523406       -0.00572847705106
C            0.93918119669597        0.28885061679703        0.01237661283346
C            0.09337837687442        1.45125717048094       -0.00418485875351
O            0.44936130108105        2.61351167836398        0.00396982842380
N           -1.26149130492694        1.10165254235156       -0.03305175824537
C           -2.24739002199508        2.17230368190564       -0.05178111055571
C           -1.79096305022370       -0.18097362218404       -0.04909640447746
O           -2.98591846811710       -0.37166343644607       -0.07347275319884
N           -0.90033920191327       -1.23681141720128       -0.03738133316397
C           -1.38988536699437       -2.60101875298316       -0.05700641109627
H            3.75034773658354        1.27632532688382        1.06021951464825
H            4.01632613000661        1.11139556645154       -0.68508915492411
H            2.73101067419428        2.18056441813437       -0.07200203059857
H            3.55986694329440       -1.54555792939500        0.04549082570429
H           -1.71557168655057        3.12052276670846       -0.02782075627031
H           -2.85393552922096        2.10230843321849       -0.95450383597551
H           -2.90677089980661        2.08610777754155        0.81178386592339
H           -1.03679854480050       -3.12673006308786        0.83207400002655
H           -1.01146265224387       -3.11011461074024       -0.94548916169153
H           -2.47558600803527       -2.57306276203979       -0.07278976965395
H            0.88681797021107       -4.12587771888381       -0.05230415080042
25
 energy: 19.105966764076 xtb: 6.6.1 (8d0f1dd)
C            3.25909143535914        1.24747932620228        0.08664813132076
N            2.30720162395434        0.16346924377890        0.04011416977581
C            2.54633951863368       -1.16741728494115        0.03950436115768
N            1.44772888656453       -1.90776954326497        0.01196286809532
C            0.44380966023724       -0.99988872552053       -0.00568914769019
C            0.93930401055604        0.29944837112735        0.01276149460479
C            0.09184139591375        1.45974683819818       -0.00432869983641
O            0.44784840019643        2.62232515107362        0.00401391183890
N           -1.26179871363294        1.10702017840410       -0.03337960853334
C           -2.25011595696739        2.17509499421277       -0.05202667534819
C           -1.78904855086137       -0.17799812266780       -0.04897219110398
O           -2.98414842275067       -0.36845846196057       -0.07314744887445
N           -0.89710894222729       -1.23006897230736       -0.03712537361966
C           -1.38366765549536       -2.59522359458892       -0.05668895007633
H            3.75242266560221        1.28439124004759        1.05999877304149
H            4.01829038608734        1.11840556477839       -0.68557673167180
H            2.73404070074972        2.18954974420513       -0.07407605874534
H            3.55986348562467       -1.53193708444253        0.04399136815068
H           -1.72090853566975        3.12457410606376       -0.02815058166412
H           -2.85681256933814        2.10377598887294       -0.95450390378513
H           -2.90907145392552        2.08787678849608        0.81170724799265
H           -1.02966048491110       -3.11773447231880        0.83356014330841
H           -1.00285596538652       -3.10199067282694       -0.94525254909968
H           -2.46889997126652       -2.57354855640093       -0.07307268243043
H            0.86325622860072       -4.24193000697428       -0.05229198469411
25
 energy: 19.283784678173 xtb: 6.6.1 (8d0f1dd)
C            3.26097258764872        1.25685451824567        0.08643850340101
N            2.30776907882027        0.17587979775904        0.03926229137166
C            2.54766646545154       -1.15333108412639        0.03615542771852
N            1.45275653524040       -1.89432027728703        0.00986456114802
C            0.44636616570693       -0.98947678911281       -0.00599242341185
C            0.93962797667486        0.30987147260541        0.01301092625851
C            0.09021513570856        1.46806151696965       -0.00425463254692
O            0.44576408947980        2.63125633763495        0.00416185055083
N           -1.26181530043320        1.11194288010441       -0.03359456523439
C           -2.25286045562961        2.17753091689062       -0.05205203412491
C           -1.78684602864780       -0.17534669121867       -0.04886887559769
O           -2.98214108984620       -0.36561182179853       -0.07280852718521
N           -0.89340046097039       -1.22413642834441       -0.03697758309136
C           -1.37737632058793       -2.58908537051421       -0.05653809503937
H            3.75115994831681        1.29030822214558        1.06127496407107
H            4.01975838096529        1.12618361547758       -0.68549221389714
H            2.73798097929377        2.19945381886856       -0.07567132996310
H            3.55784372285318       -1.52585887173235        0.04377848801754
H           -1.72601223837193        3.12819222956565       -0.02812056763427
H           -2.85949185500786        2.10508810803878       -0.95457880866845
H           -2.91191391100303        2.08840941333363        0.81165966880805
H           -1.02282147921018       -3.10790432707214        0.83444473722470
H           -0.99601404785269       -3.09287403780385       -0.94543691270443
H           -2.46210289234989       -2.57234036521720       -0.07289855502796
H            0.83861762112194       -4.35969746346294       -0.05161067807131
25
 energy: 19.422457932311 xtb: 6.6.1 (8d0f1dd)
C            3.26292962118643        1.26590203876456        0.08654918320746
N            2.30826744784160        0.18812920808935        0.03963719898986
C            2.54912501725793       -1.13902546051260        0.03555225571558
N            1.45809352130318       -1.88079652988043        0.00858759379543
C            0.44895389352785       -0.97961077453457       -0.00624388369663
C            0.93989126313888        0.31981449224684        0.01363135191363
C            0.08850536051460        1.47559390707813       -0.00355709980221
O            0.44313958634979        2.63952054725212        0.00433876661150
N           -1.26144441434389        1.11552324787621       -0.03370811038456
C           -2.25465472759737        2.17983902913141       -0.05239261447198
C           -1.78412466291101       -0.17345704924822       -0.04848291813572
O           -2.97981944418522       -0.36329925570899       -0.07239067928795
N           -0.88906117529714       -1.21980537464839       -0.03634195095041
C           -1.37152528329699       -2.58363721107330       -0.05612151127320
H            3.75234408942433        1.29806310044764        1.06181976258163
H            4.02048263927059        1.12735161682827       -0.68453047860353
H            2.74218219111696        2.20929915576001       -0.07721750142976
H            3.55168922474441       -1.52425126592164        0.04751064612562
H           -1.72990474768637        3.13174620473459       -0.02821457554181
H           -2.86169558529782        2.10594564839065       -0.95475515091094
H           -2.91351865466991        2.08780395193004        0.81116190624401
H           -1.01364445968280       -3.09965718759675        0.83415759212230
H           -0.98741899971708       -3.08513680620623       -0.94426805878319
H           -2.45680554285379       -2.56730385869268       -0.07214001136606
H            0.81193645759848       -4.47810081090366       -0.05210455599466
25
 energy: 19.560608806169 xtb: 6.6.1 (8d0f1dd)
C            3.26548259365529        1.27684545435436        0.08706482519054
N            2.30998902129691        0.20091510986821        0.04010518756765
C            2.55329325651191       -1.12399900678737        0.03578338406962
N            1.46595618643874       -1.86704802381784        0.00824901989263
C            0.45247200166117       -0.97065534702648       -0.00592679844830
C            0.94103451093831        0.32914210275630        0.01436839115854
C            0.08767194707228        1.48235444957787       -0.00331700736252
O            0.44025609396063        2.64735727342210        0.00361549354568
N           -1.25932833312993        1.11744542815862       -0.03381847731851
C           -2.25469921671021        2.17959793086354       -0.05241831568696
C           -1.78057908007099       -0.17202711161344       -0.04832248692241
O           -2.97663309643182       -0.36139915642780       -0.07242428691054
N           -0.88412011783567       -1.21741394864564       -0.03549028620228
C           -1.36631687909240       -2.58041085475455       -0.05574323859186
H            3.75404208687560        1.30697343342531        1.06282310635211
H            4.02392730672446        1.13509192015251       -0.68317226659172
H            2.74662461764772        2.22103823537872       -0.07717796774387
H            3.54941194949682       -1.51939818222859        0.05211297235849
H           -1.73364030130639        3.13395948256295       -0.02829440750926
H           -2.86201146234974        2.10394207931668       -0.95439333745609
H           -2.91246964866223        2.08495374146844        0.81141106219347
H           -1.00561866682368       -3.09647013658003        0.83267575869571
H           -0.97955378433262       -3.08079212620532       -0.94249946512596
H           -2.45291806389936       -2.56121141368561       -0.07209350267663
H            0.78341430465906       -4.59594986276702       -0.05260684231116
25
 energy: 19.658734170576 xtb: 6.6.1 (8d0f1dd)
C            3.26767406259289        1.28598781499856        0.08816069367316
N            2.31176463041492        0.21214945998823        0.04022890248726
C            2.55949774746196       -1.11084435954890        0.03445301703986
N            1.47368979527154       -1.85402436619924        0.00646308345856
C            0.45585806834593       -0.96276292108910       -0.00595748737824
C            0.94227882674629        0.33770591707700        0.01533643287835
C            0.08743486201948        1.48884524364403       -0.00329709564526
O            0.43845075027952        2.65465962014142        0.00211080978503
N           -1.25736574952165        1.11818975825412       -0.03267545464157
C           -2.25566179185640        2.17789403369959       -0.05172378435645
C           -1.77707397238102       -0.17154831359253       -0.04820218361648
O           -2.97328340266643       -0.36061261368416       -0.07255291890728
N           -0.87918105571436       -1.21862676361399       -0.03565023597073
C           -1.36100072595793       -2.58242237969039       -0.05627014049508
H            3.75504190708950        1.31462788654784        1.06486591743861
H            4.02675843363197        1.14194700011555       -0.68125003704555
H            2.74865596664664        2.22961124102075       -0.07717641273119
H            3.55411981199391       -1.51035560154923        0.04867709956563
H           -1.73610711220909        3.13303356668116       -0.02768204512821
H           -2.86161689211125        2.10090278232054       -0.95424003655809
H           -2.91355277395150        2.08301375483861        0.81198693401688
H           -1.00492344480970       -3.10576954265609        0.83059460060263
H           -0.98000697255634       -3.08929117965531       -0.94254355844595
H           -2.44844162650809       -2.55425814318417       -0.07180683880739
H            0.74652870221351       -4.71298986610746       -0.05254371568692
25
 energy: 19.711401436340 xtb: 6.6.1 (8d0f1dd)
C            3.26872330970243        1.28619345385144        0.08818148527423
N            2.30972015333252        0.21643636648530        0.04077848164076
C            2.55694421341514       -1.10711809417561        0.03334347222576
N            1.46942815417124       -1.84685975929225        0.00424482018962
C            0.45351271026767       -0.95671509601643       -0.00602238111008
C            0.94133526296942        0.34464019531344        0.01683056366151
C            0.08528461929654        1.49460236700134       -0.00294788876477
O            0.43497850252976        2.66072123835674        0.00107180106011
N           -1.25973598901440        1.12044132658495       -0.03213913465496
C           -2.25861259290433        2.17979922161096       -0.05187467814855
C           -1.77786430072751       -0.16944286585423       -0.04797847922234
O           -2.97317763149639       -0.36237032226594       -0.07226680098012
N           -0.87847431029464       -1.21814391303231       -0.03586059539079
C           -1.35864651891786       -2.58238292818858       -0.05629173029239
H            3.75580738675655        1.31320955376814        1.06494964029029
H            4.02802903806282        1.13787026043733       -0.68004425613953
H            2.75362531189510        2.23136499261843       -0.07830973974896
H            3.54797383023876       -1.51566374724200        0.04761929810987
H           -1.73738963436170        3.13413075038556       -0.02809978513339
H           -2.86460887057919        2.10177865837896       -0.95435455010848
H           -2.91609619203024        2.08469613252906        0.81198908381708
H           -1.00692688768110       -3.11109733037681        0.82990575827481
H           -0.98241660316830       -3.09384660772060       -0.94264599541579
H           -2.44625980428297       -2.55160313871980       -0.07141806992476
H            0.76706114779311       -4.80161192569310       -0.05162640731456
