25
 energy: -42.545624418518 xtb: 6.6.1 (8d0f1dd)
C            3.24970480676232        1.19800216578726        0.08697792172910
N            2.30947965944826        0.10003708477770        0.03543752673176
C            2.54595602886610       -1.23839834644195        0.03599950695191
N            1.42331450243401       -1.95182639787918        0.00592458707457
C            0.42533039439258       -1.04565649982313       -0.00843539175904
C            0.93958057060725        0.24843877865734        0.01215866382987
C            0.10425237003811        1.42145190492884       -0.00407537491707
O            0.47640817842255        2.58076127726070        0.00012270459590
N           -1.25603152440505        1.08110041157052       -0.03172915588478
C           -2.23361277113149        2.15997406248542       -0.05007264294254
C           -1.80059493192782       -0.19425924760915       -0.04935098751976
O           -2.99728838470433       -0.37255600525528       -0.07480785527355
N           -0.91690683811531       -1.26398596293688       -0.03768300309821
C           -1.43160993118386       -2.61930765187071       -0.05946460934318
H            3.73312511362150        1.24691636066239        1.06420130819950
H            4.01421624528423        1.07594954982014       -0.67964309075024
H            2.71371333274856        2.13465854060607       -0.07491773453143
H            3.55556533208368       -1.61365102944842        0.04448564004744
H           -1.69373545082593        3.10318398125983       -0.02547698124874
H           -2.84016731890458        2.09690502298452       -0.95318115558042
H           -2.89203260022380        2.07899372721130        0.81443851867446
H           -1.09606692326677       -3.15808849828237        0.82808599081734
H           -1.07054450891954       -3.13898339025120       -0.94847998147691
H           -2.51535751958546       -2.55908280151262       -0.07470663563915
H            1.02369522052562       -3.63918892937149       -0.03410584962687
