25
 energy: 59.686439496654 xtb: 6.6.1 (8d0f1dd)
C            3.79452070049607        0.88994784601128        0.15278914267318
N            2.82256591346332       -0.14935175136109        0.00646440263384
C            3.07938227096773       -1.47699635361531       -0.04349530999970
N            1.90404349142335       -2.16551424252713       -0.09673851598315
C            0.82121529112659       -1.28638312570038       -0.01989385672161
C            1.42121726839512        0.04816677263290        0.06281344972135
C            0.77471760863717        1.19609845656786        0.12255536707837
O            0.24975490644228        2.25748910269625        0.18778867312958
N           -3.30715561973856        1.48760454279167       -0.27064982238737
C           -3.35820314848834        2.89912747108698       -0.24009545860789
C           -3.51576370535406        0.43063376689523        0.22189389369390
O           -3.61658319780037       -0.68797590913047        0.51773156800325
N           -0.42607801671134       -1.49173357404675       -0.02560438942165
C           -1.04055650208217       -2.78179896430888       -0.08218982431787
H            3.89536323612917        1.22520406830381        1.19237358088492
H            4.75538628803347        0.54708574289074       -0.21716861263154
H            3.45450866047348        1.74562206704138       -0.44859856114099
H            4.04778457901788       -1.91945911471008       -0.04008808312003
H           -2.32343021331185        3.24965103898579       -0.13479050248444
H           -3.76697118569166        3.27518138149793       -1.18193148294321
H           -3.97165662196706        3.28316983854137        0.57968489353665
H           -0.50774239268136       -3.54527593746208        0.50430660561701
H           -1.13778038448820       -3.12976839160260       -1.12264043955828
H           -2.04475614766106       -2.64831902052837        0.33130658158710
H            1.83487691973610       -3.16758106091492       -0.13835998245570
