25
 energy: 48.283775534438 xtb: 6.6.1 (8d0f1dd)
C            3.48478676398810        1.05876210713623        0.13942339863388
N            2.43037018422819        0.09619764754133       -0.01418562125875
C            2.67036421241642       -1.25833925844116       -0.03701137470063
N            1.47252966795225       -1.91518454889625       -0.09424490267753
C            0.45087479289841       -1.01324649522371       -0.03679226572296
C            0.99585826872765        0.28871309963871        0.01797049418649
C            0.12577349974593        1.38066370047585        0.01131349757056
O            0.16663632196526        2.57517008615696        0.13154739852475
N           -1.75735929289249        1.09247941267748       -0.11970715215535
C           -2.57717016304920        2.31456480828332       -0.16508986434149
C           -2.19574920081839       -0.09638813826267        0.10851258184021
O           -3.22101379146823       -0.64788238384723        0.29501007555918
N           -0.87877300375237       -1.22171646717765        0.00119886843631
C           -1.28601190784186       -2.61545629128132       -0.06258945590089
H            3.77042690655453        1.18902529429164        1.19821208396636
H            4.38432875355278        0.70295418637981       -0.39115787728913
H            3.21488360323506        2.01990306841352       -0.29509045950322
H            3.61388621827199       -1.74832294460292       -0.11964087239936
H           -1.89762803871933        3.16074566161571       -0.11440512274847
H           -3.13158800848164        2.43178272792763       -1.09697596960520
H           -3.27317968458537        2.42426041013400        0.66475665238390
H           -0.74016150722651       -3.24588399678437        0.65819572701996
H           -1.12826935761301       -3.00572620273986       -1.07743435348482
H           -2.34242264718402       -2.69471198968950        0.18932746764505
H            1.41873390897298       -2.91971009859755       -0.14957698902827
