25
 energy: 0.831105242088 xtb: 6.6.1 (8d0f1dd)
C            3.34316803290080        1.13189924068957        0.10794655153966
N            2.33326411808182        0.12200988724667       -0.00366297071516
C            2.60841114799320       -1.25249885281172        0.00359636928416
N            1.39786231671566       -1.91225853468371       -0.05041289878514
C            0.39373061514726       -1.01169031692623       -0.02817558475085
C            0.90775116651147        0.27833423681121        0.00955890425359
C            0.00005680217262        1.38160815871508        0.01549036802825
O            0.32118433302365        2.57283319698062        0.02446678465127
N           -1.45257934042257        1.05991447661130       -0.02436562632146
C           -2.37301191564843        2.20341644073290       -0.09789002241141
C           -1.95190555274163       -0.19941352009883        0.06125150140401
O           -3.12283099637499       -0.47905052771113        0.07814524866066
N           -0.95924310502412       -1.24541033355178        0.01146384680432
C           -1.39901231729447       -2.62919184571895       -0.05687929786080
H            3.75396438121213        1.21030079164390        1.12776726156292
H            4.17926284425517        0.90256185111722       -0.56415503035398
H            2.91631358643507        2.08574334437120       -0.18078171308755
H            3.57477594235410       -1.71823561150930       -0.00118814862169
H           -1.76119570809855        3.10310348441728       -0.08778965286978
H           -2.96624483922306        2.21989026081088       -1.01293595653884
H           -3.04862366376521        2.22323292395069        0.75567873769689
H           -0.98454175671322       -3.22487009116968        0.76298375343966
H           -1.12655879226338       -3.09502743463823       -1.01268878803950
H           -2.48085939342997       -2.61890023351786        0.04913337333627
H            1.31300439597333       -2.91706542763343       -0.08656780376948
