25
 energy: 67.316342766731 xtb: 6.6.1 (8d0f1dd)
C            3.68749905533408        0.89674838884781        0.15798600197915
N            2.61560138678479       -0.03541319506255        0.01390512026305
C            2.85752691656186       -1.37756927796378       -0.08230636693430
N            1.68760307140763       -2.06096404297932       -0.07198288156012
C            0.62232998877887       -1.16448066022928       -0.03721445794370
C            1.22095249792181        0.15200164687679        0.06967161742930
C            0.55035595738171        1.29860241180218       -0.03829526469615
O            0.38011413666381        2.44145535298026        0.21883747920747
N           -2.53230448221949        1.28033444024169       -0.21921107434592
C           -3.04380128781672        2.59097863772235       -0.24345613605990
C           -2.93553990848902        0.26561868252510        0.25218264170427
O           -3.34007134628922       -0.76525989661635        0.58532024333056
N           -0.63476631615671       -1.35849581729109       -0.03018147396618
C           -1.12330921507529       -2.69262943596010       -0.08227421105920
H            3.75711466595386        1.33164215184718        1.15762326129973
H            4.59337673850589        0.31899937849613       -0.06146809848602
H            3.65579883900627        1.74460746000091       -0.52502255310239
H            3.81629116261267       -1.83324226367677       -0.15452152191423
H           -2.20797911016718        3.28303362324094       -0.13550383961358
H           -3.56062419282825        2.76822332071037       -1.18881097693744
H           -3.75254642252940        2.75372375978080        0.56244009985894
H           -0.42463405581368       -3.34340228079403        0.41867666230554
H           -1.25030670139444       -3.04163805740118       -1.11188323619573
H           -2.07581914909972       -2.76389451224460        0.43544431841224
H            1.61973336093122       -3.05365178913657       -0.19905808447705
