25
 energy: -5.922243841824 xtb: 6.6.1 (8d0f1dd)
C            3.27661305250060        1.16257423988428        0.09266323835013
N            2.31369767184688        0.11036908658711        0.02826286261031
C            2.60336310036171       -1.24302618735441        0.02737164171079
N            1.41114539446198       -1.93244416117454       -0.01488200826883
C            0.39695370817578       -1.04402743715721       -0.01639259738749
C            0.91653912365847        0.24289629619218        0.00917213571775
C            0.07708966526231        1.38239919447999       -0.00019787877097
O            0.43924236016600        2.56380808300585        0.00367786429631
N           -1.32724735687771        1.05029757824571       -0.02691613761930
C           -2.27133638372870        2.16319557636212       -0.06388547985029
C           -1.86292855496037       -0.19920007135719       -0.01058321077870
O           -3.05525375512950       -0.41184549128305       -0.03167702160451
N           -0.94793212085552       -1.28217828303781       -0.02164963956140
C           -1.44672892908771       -2.63785765940083       -0.05913438255527
H            3.73503633663849        1.22006256872296        1.08606502928313
H            4.07142829640261        0.99988013603882       -0.64117671126836
H            2.76870357754368        2.09774953323147       -0.11942848125105
H            3.57963281511720       -1.66997063718900        0.03538724763101
H           -1.69420714702215        3.08433477234984       -0.04685083966015
H           -2.87452606356971        2.13606334800804       -0.97072892438951
H           -2.93480095348352        2.12501038716334        0.79914180720277
H           -1.10662057792594       -3.20530083821169        0.81081850674656
H           -1.13444061722318       -3.14896373825744       -0.97491342370940
H           -2.53172375315228       -2.57171556055890       -0.03241964029854
H            1.34640329396255       -2.93743603219414       -0.02968225485024
