25
 energy: 70.779661749782 xtb: 6.6.1 (8d0f1dd)
C            3.54665896326345        1.01053237963676        0.16148401871930
N            2.49181805777604        0.05251348316888        0.06254723865421
C            2.73147746922390       -1.27759994491553       -0.06565176210309
N            1.55387357849930       -1.95363823897088       -0.08176658263327
C            0.50559664424416       -1.05366372790360       -0.03564932855766
C            1.07850121675954        0.26272430256703        0.07833655194939
C            0.32820725208230        1.38738178701093       -0.00092179175805
O            0.17584325847840        2.55100273672807        0.22298013956219
N           -2.04528161156508        1.15395711780267       -0.17245972262911
C           -2.72791198800854        2.40865059036075       -0.20352534440341
C           -2.49311341076331        0.07769214978309        0.15637028861096
O           -3.23396603953630       -0.77545267136599        0.40109420491238
N           -0.76646385003954       -1.26510889638367       -0.01418292697592
C           -1.22716092082168       -2.62795167558836       -0.06785890737404
H            3.76794411358374        1.22084289365905        1.21837017118201
H            4.45195247987390        0.59284057067247       -0.29885649347332
H            3.33692128272643        1.94691569284141       -0.34376650767835
H            3.67923006517189       -1.73830994607918       -0.17192825946640
H           -1.98464133528225        3.19322034551705       -0.13330722798415
H           -3.26250609044085        2.55414708314193       -1.13887584106112
H           -3.40602373286967        2.55623244094600        0.62626209237137
H           -0.63434645481097       -3.26448278343403        0.59308276734610
H           -1.16459832085660       -2.98611899025522       -1.10032920964178
H           -2.26261016965129       -2.72357346955551        0.26429855750310
H            1.49409427811848       -2.94662875297828       -0.17576486609375
