25
 energy: 61.654020087867 xtb: 6.6.1 (8d0f1dd)
C            3.74304014281706        0.89395694730602        0.15435540098155
N            2.70909355048966       -0.08179903310185       -0.01593936366859
C            2.97138927223584       -1.41376233192907       -0.02946490215419
N            1.80421851057253       -2.10124341552676       -0.08246685313084
C            0.71012975681983       -1.24301792404331       -0.02648577633894
C            1.30048448499074        0.09581285435232        0.07134470267048
C            0.68528723302521        1.27305116284885        0.08344146829230
O            0.31369594779884        2.39930434334998        0.19579806621223
N           -2.91090029570873        1.39103442314986       -0.24654009058070
C           -3.18753935634221        2.77348737357587       -0.22853939246524
C           -3.26363796476464        0.36178672598833        0.22807835966871
O           -3.51929782646498       -0.72565739519462        0.54068158520601
N           -0.53686678028731       -1.46269564515297       -0.03425534683188
C           -1.08997885075602       -2.77743738700004       -0.09005582657868
H            3.78259135594983        1.30493409753044        1.16459829930948
H            4.68571297655294        0.36100870745173        0.02340413234470
H            3.67937276350274        1.69105681771589       -0.59046908160363
H            3.94838071287894       -1.83507851032671       -0.11683532758429
H           -2.25516221648717        3.32404931651083       -0.12828589801812
H           -3.67430892550224        3.03803152923979       -1.17177870609149
H           -3.86798640143778        3.01817857423009        0.59233727685327
H           -0.49442471997267       -3.51280889905397        0.46704893605324
H           -1.16876746117609       -3.11909839995721       -1.12565837266829
H           -2.08930231776218       -2.68962471763185        0.32061179100413
H            1.75105155870530       -3.09712048437483       -0.17816857080511
