25
 energy: 70.731529886797 xtb: 6.6.1 (8d0f1dd)
C            3.57628084106188        0.98992769845650        0.16102493163595
N            2.51038351487500        0.04585562515727        0.05570749154863
C            2.75596689949846       -1.28746544031646       -0.08210316112769
N            1.58429576707594       -1.97262974984923       -0.08228117722085
C            0.52975022389569       -1.07355119332992       -0.03567844897481
C            1.10709461352489        0.24623337820854        0.08221872141002
C            0.37589816555693        1.37021289813585       -0.00853154164681
O            0.20260115431544        2.52713641855254        0.21555914898345
N           -2.15466668520502        1.18220051201372       -0.18465926494023
C           -2.79338713141949        2.45064848989522       -0.21791546793082
C           -2.59756842728240        0.13021841057845        0.18743054305038
O           -3.23432980849876       -0.79284960604267        0.45686664123586
N           -0.73428786466476       -1.28109701885562       -0.01397567008843
C           -1.20161317848820       -2.63603357859892       -0.06870792495316
H            3.76748466733778        1.24408077974129        1.21343357458947
H            4.49076355557126        0.53810055370303       -0.25500738160470
H            3.40563528458745        1.91576618209279       -0.37957846330509
H            3.70506302069224       -1.75089948138218       -0.18958327008425
H           -2.02871084006645        3.21174813625073       -0.13911567625008
H           -3.32291355457292        2.60007156954577       -1.15550622920130
H           -3.47600883729601        2.60223699940917        0.60696803957199
H           -0.57643960914855       -3.27216459055783        0.56151987484241
H           -1.18601757269129       -2.97355886518026       -1.10994535408366
H           -2.22485616959725       -2.73959024010164        0.30593781702712
H            1.52512801994226       -2.96246874312096       -0.19306678078427
