25
 energy: 59.190394667551 xtb: 6.6.1 (8d0f1dd)
C            3.80343709763870        0.88158750658497        0.15246334929967
N            2.81829486698067       -0.14515679229956        0.01173393627235
C            3.06691620874264       -1.47528729214087       -0.04226196315039
N            1.88629773818706       -2.15611631380239       -0.09196506297600
C            0.80505591586289       -1.27501142646340       -0.01860174350140
C            1.42442169169038        0.05332547560188        0.06375973351154
C            0.79857756400965        1.21258528233899        0.10906345467679
O            0.20274769789278        2.23590146277618        0.17512707365544
N           -3.30851416415043        1.46418506099076       -0.30116761919707
C           -3.31916022267391        2.87706434271484       -0.23545960548038
C           -3.43707857182431        0.40544343717135        0.21485130581197
O           -3.55614611288531       -0.71426282943865        0.49966079802339
N           -0.44493953631918       -1.47823146067272       -0.02546144603576
C           -1.05749697801724       -2.77218883910553       -0.07985338796020
H            3.87933772065901        1.23604724026142        1.18615262980215
H            4.77235368167069        0.50498006848798       -0.17570417199590
H            3.52659039922843        1.72330125789691       -0.48374157807988
H            4.03652578043168       -1.91891024336668       -0.05284289875877
H           -2.28597804400679        3.23014585180507       -0.13107244061563
H           -3.74755460709707        3.26526007587076       -1.16735160956172
H           -3.92769039099238        3.25463498567397        0.59256909583554
H           -0.53207123059640       -3.53453886945660        0.51693385725858
H           -1.11427651697053       -3.13714484390533       -1.11149442370333
H           -2.08160731307534       -2.64421453392152        0.28043881216507
H            1.82085402313248       -3.15869484047360       -0.13979663645170
