25
 energy: 7.111851878668 xtb: 6.6.1 (8d0f1dd)
C            3.37669568306297        1.11266764098233        0.11627814469313
N            2.35166223719506        0.11421791205306       -0.01413209448378
C            2.61368603142520       -1.25978642512417       -0.00875895314496
N            1.40517631110760       -1.90895081747437       -0.06359327794137
C            0.39892862712282       -1.00290579478341       -0.04026360667792
C            0.92024576914836        0.28709028522575        0.00418417667700
C           -0.00159493945165        1.38563388201187        0.00743629578081
O            0.27837530737861        2.57966196246999        0.03861948309186
N           -1.51015545286531        1.06963307962877       -0.04105386927408
C           -2.41983944141661        2.22871519062342       -0.11632870153927
C           -1.99560414652379       -0.18941750569335        0.07767781870581
O           -3.15064311616393       -0.51041525319126        0.12924507237007
N           -0.95621621103079       -1.22852956491620        0.01087871824007
C           -1.37472891908087       -2.62386443208432       -0.05641096578047
H            3.76170653279415        1.20312521884770        1.14873285394956
H            4.23103214183693        0.85420282902566       -0.52418251130326
H            2.98913153915885        2.07344271065769       -0.20938086543403
H            3.57452834467494       -1.74181465104484       -0.02577656696543
H           -1.79651052112150        3.12166769505982       -0.09751483397543
H           -3.00825620354965        2.26639857022589       -1.03573676005699
H           -3.10439370853450        2.26838419843824        0.73072251534303
H           -0.92408181680750       -3.22852501302094        0.74040849606798
H           -1.12274133893296       -3.07093796653874       -1.02875016083091
H           -2.45303134052241       -2.64094819184474        0.08953240171099
H            1.33219280972163       -2.91514946722692       -0.11176292115001
