  72
        -99.27495786
 N         -1.6151135652        2.6127413583        2.5039100728
 C         -1.6158533134        1.9192215947        1.4663558083
 C         -2.7531148574        1.8548933104        0.4835513746
 C         -3.3222915163        0.4431189480        0.4600964538
 C         -4.2407984911        0.0805502244       -0.5266043858
 C         -4.7951386702       -1.1885715161       -0.5690003610
 O         -5.6917279604       -1.6173800911       -1.4780224526
 C         -6.1956553738       -0.7162540335       -2.4355818086
 C         -4.4149933261       -2.1520552998        0.4067241176
 O         -4.9936840304       -3.3593942765        0.2823552953
 C         -4.7222432927       -4.3564716844        1.2403513065
 C         -3.5077408225       -1.7814183920        1.3881092336
 C         -2.9738752216       -0.5009810661        1.4154760111
 C         -2.1436467352        2.1940694533       -0.9023102905
 C         -1.2024797288        1.1111306270       -1.4494914258
 C          0.1490217874        1.1466541626       -0.8459681121
 N          0.9120747550        0.1035108958       -0.6359348673
 C          2.2877944889        0.2605711169       -0.2293393392
 C          3.2273769214        0.1148272607       -1.4408242336
 C          4.6557291295        0.2153344430       -1.0017016098
 C          5.4677338781        1.3019531027       -1.2833705626
 C          6.7833330213        1.3669993514       -0.8572822763
 C          7.3556704378        0.3229135190       -0.1079572705
 O          8.6138962324        0.2872902624        0.3484991187
 C          9.4798122800        1.3676468911        0.0833517319
 C          6.4885120359       -0.7187507156        0.1398250545
 O          2.8643819220       -2.7129680640        0.2222315967
 C          3.1026166964       -3.9854276258        0.5698314744
 C          5.2100475037       -0.8364684748       -0.2466349077
 C          0.4603145592       -1.2492285975       -0.8574636956
 C         -3.9106849418        2.8435562236        0.8130199520
 C         -4.5805049030        2.4927423206        2.1393621803
 C         -3.4716342917        4.3051691377        0.8270890685
 H         -4.5389498573        0.8047174823       -1.2664120083
 H         -6.6901705660        0.1370770249       -1.9618653663
 H         -6.9262991536       -1.2811920866       -3.0111509755
 H         -5.4076938508       -0.3587939584       -3.1063051492
 H         -5.0231959625       -4.0396198450        2.2431131241
 H         -5.3154611528       -5.2181470622        0.9404504646
 H         -3.6627020447       -4.6300787179        1.2455059183
 H         -3.2151332742       -2.4841245216        2.1510680001
 H         -2.2944749367       -0.2435095452        2.2129126274
 H         -2.9574846953        2.3357504051       -1.6119161001
 H         -1.6038017535        3.1384794711       -0.8305630594
 H         -1.6639567684        0.1293494148       -1.3406739149
 H         -1.0765331851        1.2953766996       -2.5242957652
 H         -0.7546577709        1.3059303125        1.1404469646
 H          0.5905532325        2.1196146050       -0.6758929811
 H          2.5334389099       -0.5265489307        0.4872844050
 H          2.4305710768        1.2402125660        0.2322011638
 H          3.0029477813        0.8855822423       -2.1805033578
 H          3.0605100573       -0.8673473192       -1.8842922698
 H          5.0759236837        2.1269489776       -1.8612413067
 H          7.3807930725        2.2307667254       -1.1034374321
 H          9.1166016247        2.2919283619        0.5420869978
 H          9.6158264957        1.5187661767       -0.9912795566
 H         10.4331665966        1.0946606976        0.5309693043
 H          3.7392267827       -4.0468872910        1.4720317030
 H          2.1648659058       -4.5286456142        0.7927074848
 H          3.6206101684       -4.5385417623       -0.2360120524
 H          4.5785280441       -1.6898827326       -0.0122135118
 H          0.2451085394       -1.4225640023       -1.9127903483
 H         -0.4449546703       -1.4464048882       -0.2795134472
 H          1.2483221510       -1.9379967567       -0.5318661436
 H         -4.6561011192        2.7226332684        0.0185177812
 H         -3.8759012995        2.6138844735        2.9558517605
 H         -4.9464217905        1.4687511467        2.1367306002
 H         -5.4235288538        3.1569726532        2.3095004051
 H         -2.6883596268        4.4574763906        1.5631394721
 H         -3.1207693016        4.6344678152       -0.1472821210
 H         -4.3188402085        4.9282020517        1.1010684797
 H         -0.7864993992        2.6010335482        3.0895873988
