25
 energy: 73.239711513728 xtb: 6.6.1 (8d0f1dd)
C            3.62382550830295        0.93797032519208        0.08707231019325
N            2.53614507354734        0.01926985795107        0.06827344157226
C            2.76998717229208       -1.29516435366396       -0.10485114286084
N            1.60330920564822       -1.98374273884612       -0.09335106680309
C            0.54580032796055       -1.08820363762650        0.00371638376455
C            1.12596983119178        0.22970115554937        0.11194093941086
C            0.37524651474258        1.34986859245131        0.11930426060992
O            0.21325689232007        2.49312789612436        0.42764607889930
N           -2.21242962426246        1.24137334681984       -0.24234855635167
C           -2.85424901505376        2.50686111659114       -0.20903394437670
C           -2.77783045187307        0.21029006648508       -0.01382478786271
O           -3.42010620510048       -0.72861216525290        0.18568534299588
N           -0.71113591795262       -1.28633332542660        0.01060919995583
C           -1.17784067093230       -2.64395520201041       -0.02063129754554
H            3.73871125138421        1.44677854485048        1.02524695838224
H            4.53070067392248        0.31932944623055       -0.11183860497164
H            3.63212704932695        1.72695119474408       -0.64835779875091
H            3.71396373881664       -1.74667155441712       -0.25062355666961
H           -2.10709178454101        3.27559256295151       -0.06979077218145
H           -3.38083748182516        2.68470533010984       -1.14282541040379
H           -3.54670822449164        2.59091742522225        0.61454967530130
H           -0.56449626335961       -3.22524549052718        0.66916267882129
H           -1.08116333410953       -3.04107777302152       -1.03665848013996
H           -2.22950936468658       -2.75733258970599        0.26969339237849
H            1.54001595312331       -2.97731592877271       -0.17995082709112
