25
 energy: 72.720484964346 xtb: 6.6.1 (8d0f1dd)
C            3.56105532520775        0.99719234308171        0.09972569939098
N            2.47947127192331        0.06373570421429        0.05145364918170
C            2.71383697184041       -1.26335848597137       -0.07972294592199
N            1.53956214308892       -1.94532071766170       -0.09774905136554
C            0.49052279518327       -1.05241385568881       -0.01190759717899
C            1.06051637849963        0.26934424638255        0.09180678247761
C            0.28931838435669        1.38798281582707        0.11507608050429
O            0.14862975163303        2.54093596484739        0.39701515282950
N           -2.03175949062671        1.18207724431271       -0.20190793716888
C           -2.72722150680699        2.43328858934004       -0.18594023635216
C           -2.57991882427624        0.11943853839032       -0.00459922257627
O           -3.32550419893506       -0.74972114499698        0.17235359531739
N           -0.77434559290959       -1.26769642823507        0.00823058519826
C           -1.22238996683920       -2.63670561810421       -0.03021021727124
H            3.73998941692604        1.40809189702727        1.08953353028085
H            4.47521491380932        0.45561798790734       -0.22761194688521
H            3.47087930123905        1.84683362392075       -0.54999955675480
H            3.64733902591312       -1.73344544761848       -0.22264248386184
H           -2.01177832133393        3.23416726393882       -0.07237596507057
H           -3.26177489985540        2.59693672384499       -1.11458313254883
H           -3.40411852935044        2.52547847024835        0.65252687325920
H           -0.66744281180216       -3.23438316398396        0.69832017326672
H           -1.05650741430432       -3.03677199769772       -1.03286471707284
H           -2.28858946848187       -2.73386372469286        0.19579764328767
H            1.47650294214067       -2.94074797955419       -0.17047198218371
