25
 energy: 63.568331727171 xtb: 6.6.1 (8d0f1dd)
C            3.77906285154157        0.85581126861660        0.11022961076428
N            2.75710635243201       -0.13567522018817        0.09440394064900
C            3.00174011237520       -1.44318100871279       -0.14700330149644
N            1.83482445738155       -2.12512668059854       -0.03999238391820
C            0.75497707869744       -1.25787813768551        0.02659438878244
C            1.35779281045916        0.06709136116591        0.14886515003522
C            0.66411559497965        1.18684557664476        0.20520125747218
O            0.28944119452182        2.28636783269247        0.44789399015562
N           -2.94226346795358        1.45819697653082       -0.30423768859646
C           -3.28706320145455        2.81592302201017       -0.21726508971949
C           -3.43497827201901        0.41422315603076       -0.01290462557549
O           -3.62641689331149       -0.71357066182355        0.18442442599723
N           -0.49200216369214       -1.48108705244356        0.01006585300622
C           -1.04755575220051       -2.79170868555483       -0.01854871871393
H            3.75697058090676        1.39214286615555        1.06086549921063
H            4.75287495461836        0.37104161575883        0.09997441025775
H            3.72550123393618        1.51985258386266       -0.75613802338160
H            3.97426667879809       -1.86821428909280       -0.20436055163686
H           -2.36868206841533        3.38521931936760       -0.08778911364297
H           -3.78456660393715        3.11754310500809       -1.13816021902544
H           -3.94426841471063        2.96902567993720        0.63737379879551
H           -0.46863139514128       -3.48534763492333        0.60749271315191
H           -1.06672612715505       -3.16924400131258       -1.04730857747702
H           -2.07477543305482       -2.72536939694148        0.36577675314840
H            1.76635253254731       -3.10931924837606       -0.19142633558087
