25
 energy: 51.390589198783 xtb: 6.6.1 (8d0f1dd)
C            3.48966980524961        1.04993245233596        0.10297470226571
N            2.41137061580559        0.10755512020012       -0.00540835622819
C            2.65413459350757       -1.24855961933885       -0.05160967532454
N            1.45756288361202       -1.90950232115204       -0.10808129896977
C            0.43411793173990       -1.01561631048525       -0.02859702732051
C            0.97376295798502        0.29265723460445        0.05062485154601
C            0.09994267747498        1.37962977518738        0.13065327856518
O            0.16227388926199        2.56947637508165        0.27277591982878
N           -1.76625566682700        1.11206039272812       -0.12373192639388
C           -2.58051950507756        2.33214964701529       -0.14761809844040
C           -2.24877478973237       -0.06732698639947        0.00164237744096
O           -3.24432183753769       -0.69174629997239        0.10682291510198
N           -0.88572437719527       -1.22997818419398        0.00894210282930
C           -1.28964975701379       -2.62548016511925       -0.03857134202939
H            3.75024544683499        1.33120104318316        1.12788743698786
H            4.40293979217543        0.59903111715248       -0.33464701365395
H            3.31553323249106        1.96212878283964       -0.43928271950485
H            3.58699354307411       -1.75593006678824       -0.15655668151420
H           -1.92137916897216        3.18876046702062       -0.06882803481242
H           -3.13157472769694        2.47265164384861       -1.07395830423829
H           -3.26761564307839        2.41340536568490        0.68988366811333
H           -0.77759194737852       -3.22174039101991        0.73199389594830
H           -1.05453883137773       -3.05466552553383       -1.02260886163675
H           -2.36510954238358       -2.70461675286960        0.14121449231357
H            1.40721270916613       -2.91337035130994       -0.13434756314207
