72
 energy: -99.645784584371 xtb: 6.6.1 (8d0f1dd)
N           -0.83572433073743        3.23523730240807        1.47422178984715
C           -1.31275875078335        2.15526920267321        1.04372784344974
C           -2.67171499417475        2.01298356581117        0.30640596448533
C           -3.30453691072435        0.61142387623410        0.41494243527835
C           -4.24169918310908        0.14983074019466       -0.53067250607489
C           -4.79630468530511       -1.12077253423531       -0.48877669429626
O           -5.72466047805283       -1.61829696142035       -1.36821339948373
C           -6.28390817157396       -0.77287744142057       -2.34409566551861
C           -4.40601053740498       -2.02245183950669        0.52799085213280
O           -4.98056866048714       -3.26292257461733        0.48388954283403
C           -4.66376993234580       -4.18380521958285        1.49672689897304
C           -3.50183012797895       -1.57948466136670        1.47398927254205
C           -2.97462431269624       -0.28820568878480        1.42201776035718
C           -2.27993079964974        2.27294586124516       -1.17030255106931
C           -1.35663014951927        1.20223401080728       -1.76107669391903
C           -0.06772848931116        1.17635762427411       -1.04053462207162
N            0.53594030229894        0.03808687605002       -0.57459924019076
C            1.91017998251712        0.06527140135732       -0.15565631268016
C            2.87109198419372       -0.44909149832795       -1.25290632187065
C            4.29688810171228       -0.36551715225727       -0.79809803771764
C            5.03277251834196        0.79049127859899       -0.97720141164419
C            6.34832300734126        0.87129535548637       -0.54304517522466
C            6.94951811849032       -0.20503735128395        0.08294494474405
O            8.23669747126670       -0.24555276157787        0.53068248361122
C            9.05150734370128        0.87940962806352        0.32780718862414
C            6.20163220320533       -1.38684275308797        0.28601174917602
O            6.87394236933476       -2.39565541189486        0.90936243643806
C            6.21514920784704       -3.61661770749913        1.12448201129379
C            4.89213986516629       -1.44759544278778       -0.15048535531241
C           -0.12018844585557       -1.24249135710983       -0.61873594125907
C           -3.65193864440873        3.18173500033772        0.69398951774784
C           -4.82755024986785        2.64935372923221        1.56726193235266
C           -2.89374649615134        4.46337351020138        1.16345094020693
H           -4.57121265113423        0.80694161581711       -1.32134687743377
H           -6.77175442987362        0.10417475677683       -1.89774406139100
H           -7.03074242324974       -1.37371216621717       -2.86575453014884
H           -5.53493147451623       -0.43518360524951       -3.06793445462284
H           -4.94060210602555       -3.80751079283607        2.48745880146905
H           -5.24873049864379       -5.07611788808013        1.27666681678109
H           -3.59873000391151       -4.44095595835176        1.48913415429660
H           -3.19433393904283       -2.24100252665797        2.27034444978903
H           -2.28701012528081        0.00635869833964        2.19882025764522
H           -3.17011450617176        2.36530926552206       -1.78798491744622
H           -1.75735601659756        3.22950484891108       -1.18862269052457
H           -1.85291177333646        0.23278097413200       -1.72746555075338
H           -1.22702405951720        1.47881176286852       -2.81953424809725
H           -0.80959968580340        1.20233231374078        1.28192230907051
H            0.56175847948379        2.04645016291624       -1.09992313669990
H            2.02933732856406       -0.54650672384083        0.74633145081042
H            2.19022082483259        1.08922698954806        0.10152905036595
H            2.72325675255008        0.16696668081764       -2.14238828299633
H            2.61338458388134       -1.48013125569302       -1.49849114887327
H            4.58904877264217        1.64289861742055       -1.46930896723691
H            6.89923461056865        1.78432340936369       -0.70673992540025
H            8.66726443279905        1.76141322264315        0.85250787419431
H            9.16324188643033        1.11231037785150       -0.73672058178813
H           10.02373559272044        0.61339329963471        0.74060105206994
H            6.94942779083068       -4.26108487650786        1.60643998388265
H            5.34870254944870       -3.49868285529616        1.78455773706279
H            5.89802088226209       -4.07528712037656        0.18195051528781
H            4.31326349911845       -2.34692253864932       -0.00566161355559
H           -0.22132957579863       -1.61211459572425       -1.64569828211546
H           -1.11913371321561       -1.17554013144044       -0.17976507930604
H            0.46533308058195       -1.95916855378201       -0.04726510690249
H           -4.13371389260446        3.48850687212576       -0.23215337366992
H           -4.51050661062561        2.10167548720028        2.44467241355368
H           -5.44147488872572        1.95642291844805        0.97715904973816
H           -5.49078374295032        3.45574525294691        1.86866587108043
H           -1.91685026086558        4.66742834680456        0.56899161526558
H           -3.45223252533765        5.37831846035284        1.00650474092234
H           -2.85548884749059        4.46440746759725        2.27048093894801
H           -0.23029129841510        3.94538561842679        1.16906088134020
