72
 energy: -99.293594208335 gnorm: 0.002793720403 xtb: 6.6.1 (8d0f1dd)
N           -1.98836402835542        2.74831794454173        2.29506266953240
C           -1.89222314277215        2.13729099022922        1.21188021734287
C           -2.99826714090669        2.00902869441689        0.20098946812554
C           -3.49336523317255        0.57354663743270        0.16878901315219
C           -4.43599391519690        0.18081198662843       -0.78490764218163
C           -4.89642017542408       -1.11923214174312       -0.86175036934320
O           -5.82114278473368       -1.57056866091628       -1.71732766239721
C           -6.49127907568118       -0.67600733937289       -2.57390223649202
C           -4.37343776628417       -2.15691620295974        0.03759795504152
O           -4.72256235338600       -3.33905091056475       -0.05706419086451
C           -4.27324547465971       -5.56447891989852        2.93363943828387
C           -3.44026634059059       -1.68851102184738        1.01918285803015
C           -3.02831806195847       -0.38365186428670        1.07898180096237
C           -2.36931993474914        2.36768084392774       -1.17235886578364
C           -1.44171201756387        1.28081596248092       -1.74636873928387
C           -0.13439925058225        1.18128863516070       -1.05949758452766
N            0.48849697438331        0.05298383517595       -0.75483754584373
C            1.85721415464361        0.07003393982776       -0.29160003035179
C            2.84238500075659       -0.34797902167583       -1.40139812745266
C            4.25791054703102       -0.14788312113323       -0.93513122566755
C            4.89879116672605        1.06473980425860       -1.13686648985080
C            6.19621699322989        1.26579848855741       -0.69351282738984
C            6.88090572664149        0.25633615266951       -0.03104700294978
O            8.13781504806337        0.33835024104510        0.43824086211037
C            8.87197600554132        1.52543540483838        0.24146539358016
C            6.22964849252831       -0.99091366713735        0.18633148242900
O            6.96531549989122       -1.91350935932851        0.83395284477702
C            6.42259169433965       -3.19057719941270        1.07307289047320
C            4.93087543137669       -1.16773830133605       -0.26688214693289
C           -0.11927706120359       -1.24104468713912       -0.95599444917709
C           -4.20658765444970        2.94796402145624        0.49749368813384
C           -4.92246635874865        2.54240761873203        1.78362835611808
C           -3.82239536658770        4.42315204717985        0.56048016609525
H           -4.82431354791381        0.91442845978434       -1.47459914731687
H           -7.00914688605393        0.10519213076398       -2.00761346486016
H           -7.22197442797399       -1.27652486027389       -3.11260065695434
H           -5.80397017465575       -0.21439298320302       -3.29099206316832
H           -4.60205181479610       -4.83209502913892        3.63964252647631
H           -4.99101156605846       -6.10152037554156        2.35003928932695
H           -3.22867945841608       -5.74132004314395        2.78794859337992
H           -3.07762887930638       -2.41860651620436        1.72578583618198
H           -2.34030980078646       -0.08585755632787        1.85699833753323
H           -3.17214861934775        2.53512998751403       -1.88941250639239
H           -1.81314133540229        3.30064501335955       -1.07460237513203
H           -1.96306766603499        0.32485845531527       -1.75805116773868
H           -1.23702050089187        1.55979114027391       -2.78847910187487
H           -0.96026774144878        1.65132912308471        0.85765252181588
H            0.43013670325575        2.09389116750578       -0.93014694760554
H            1.95655870668030       -0.61033437112043        0.55855659416757
H            2.11256236465267        1.07713521213823        0.04427771410888
H            2.65616495534348        0.26635128905869       -2.28413737655965
H            2.67791631976500       -1.39282681542710       -1.66646594659864
H            4.39254287802768        1.86317825035845       -1.65780893321465
H            6.67066592333115        2.21627096966656       -0.87410896795094
H            8.39928253144932        2.37623383244534        0.74144101229177
H            8.99476263854146        1.74796459918625       -0.82260140293075
H            9.84787560438799        1.34236788955673        0.68689733938042
H            7.20418680508573       -3.74854669266546        1.58501338380277
H            5.53791566405610       -3.13645544613401        1.71540692028005
H            6.16779797269413       -3.69954950408534        0.13852039752163
H            4.43339671660567       -2.11293133350679       -0.11583072904478
H           -0.22617925433033       -1.46506459740650       -2.01909508124234
H           -1.10543298289484       -1.28122003871088       -0.48816402460648
H            0.50551056864849       -2.00588975372535       -0.50229164274183
H           -4.90995320635755        2.82110225144426       -0.33299879179085
H           -4.26980245175742        2.69223474384940        2.63754787540435
H           -5.22663560833449        1.49881093928737        1.75244404020766
H           -5.81098397294302        3.15447957855996        1.91464027514766
H           -3.09879859792258        4.59452877792033        1.35196752026058
H           -3.41422559236434        4.77716534541979       -0.38290345588548
H           -4.70944030085917        5.01155434791578        0.78104802528727
H           -1.17367596702527        2.79471110434116        2.89799845597023
