  25
        -42.24015486
 C          3.3012514585        1.0779684594        0.0146698019
 N          2.2999686472        0.0452374554       -0.0020224314
 C          2.4967340397       -1.2862012793       -0.0054907926
 N          1.3749268516       -1.9788350862       -0.0049080162
 C          0.4058009716       -1.0567409095        0.0004759655
 C          0.9426803645        0.2300846946        0.0029525464
 C          0.1259471423        1.4040995624       -0.0031270360
 O          0.4542419466        2.5587745810       -0.0131276752
 N         -1.2709410741        1.0410944025        0.0013192281
 C         -2.2314928683        2.1344665290        0.0008298405
 C         -1.7445659466       -0.2094166321        0.0025177933
 O         -3.0529872823       -0.3353287638        0.0045133382
 N         -0.9487532345       -1.2841148152        0.0010404959
 C         -1.4313576392       -2.6537829725       -0.0006786914
 H          3.8097351822        1.0949412576        0.9800008814
 H          4.0387366900        0.8960377413       -0.7664816439
 H          2.8217758823        2.0411231436       -0.1508207355
 H          3.4581322825       -1.7562993616       -0.0100315048
 H         -1.6668799026        3.0650397452        0.0067077395
 H         -2.8565210744        2.0862874550       -0.8893920726
 H         -2.8649989306        2.0790598839        0.8845053302
 H         -2.0127869080       -2.8668396118        0.8976388382
 H         -2.0182549353       -2.8626014998       -0.8965763665
 H         -3.3625067250       -1.2558705965        0.0047729541
 H         -0.5411297281       -3.2832609014       -0.0048425107
