25
 energy: -42.013022489772 gnorm: 0.006061634452 xtb: 6.6.1 (8d0f1dd)
C            3.23198821659164        1.22862605175914        0.31898118857134
N            2.24136911316598        0.24788180786994        0.00776425488291
C            2.18386909097139       -0.98877477477861        0.74542852073886
N            1.25211748464525       -1.89296075476823        0.09510893855102
C            0.27057905952063       -0.97817759048359        0.07796441332561
C            1.06526071100054        0.03856652732775        0.82844709531424
C           -1.59688484273700        1.64927356138161       -1.68303846250587
O           -1.66356249542010        1.95050783395480       -2.78964606037177
N           -1.48237227900183        1.16046424305566       -0.52938731913919
C           -1.25098609711914        1.94555876380707        0.68766921545438
C           -2.00014747050954       -0.25042032558257       -0.36266418668117
O           -3.17626523123078       -0.44430782860724       -0.42568717927115
N           -1.02060925113226       -1.19930260068872       -0.24411324128651
C           -1.44482264348331       -2.58915891294937       -0.43312815180102
H            3.48597031770765        1.26432313595414        1.38385294567052
H            4.13089650190869        0.99504973692502       -0.25067908315989
H            2.86188738786453        2.20464203978363        0.00965107285753
H            2.93818034541389       -1.32960969308874        1.42756845549641
H           -0.99100130718243        2.96804187930954        0.42327687831882
H           -2.15718348924416        1.94137236660910        1.29301970522053
H           -0.41950276683495        1.48075067702114        1.23425115345932
H           -1.05724904926090       -3.20461597103133        0.37915889507149
H           -1.08337548015673       -2.96415524642049       -1.39278906187489
H           -2.53300287666976       -2.62450033279390       -0.42365626399755
H            1.37527856529427       -2.79083605196770       -0.34618210494235
