25
 energy: 41.022989392238 xtb: 6.6.1 (8d0f1dd)
C            3.05562395077314        2.46309174695600        0.49503722141092
N            2.39246891660476       -0.37596562167888       -0.38008816310805
C            2.56329096788683       -1.61284297910872       -0.01099066707261
N            1.36045442502102       -2.28763313506108        0.19503266469487
C            0.38396461781659       -1.38957419190846       -0.08666133278748
C            1.03941606315739       -0.19734141232216       -0.38783910081063
C            0.29448711235007        0.98792177564756       -0.70578928393989
O            0.68624702379197        1.94523408488943       -1.32331998356720
N           -1.01961977973174        0.86451396198425       -0.16392633958894
C           -1.77632398262870        2.08348166788740        0.08721274575285
C           -1.70664039743438       -0.30892349591319       -0.01886482088405
O           -2.90142844261865       -0.31989561270870        0.18482302820674
N           -0.98004754691655       -1.51379038060979       -0.10434151290997
C           -1.81822516780332       -2.70489039084543       -0.14441541468455
H            3.94932577499053        2.48412722940469        1.06708894362519
H            3.02006202072644        2.58462120960285       -0.57320558796711
H            2.09947346180212        2.42126416432792        0.95703280464720
H            3.50461471310392       -2.10131491886234        0.16058445668209
H           -1.11827040330119        2.91894713950897       -0.05676666937033
H           -2.61343763406072        2.20494352729923       -0.56760521434249
H           -2.12645239651625        2.12269543120924        1.12015754138178
H           -1.77275507018628       -3.30217359931619        0.77562515109919
H           -1.63316373340667       -3.35568299814368       -0.99902453284840
H           -2.82430070894692       -2.28498254493116       -0.29307716224886
H            1.27006499799828       -3.28134267097917        0.33294529813703
