25
 energy: 30.231479859071 xtb: 6.6.1 (8d0f1dd)
C            3.65644881757940        3.63783655243536        0.23279552106824
N            2.30685060761816       -0.88409854052165       -0.03954454033088
C            2.31176529707638       -2.17478558810576       -0.06581271012713
N            1.04130995230260       -2.71116988676493       -0.10226765796937
C            0.19801028322530       -1.64463372395108       -0.08216006632591
C            0.99336493184112       -0.50831341509120       -0.03769634644776
C            0.41010973158549        0.81087540127621       -0.00268857185586
O            0.98309905482605        1.87418694577329       -0.01587974760649
N           -1.00083158247743        0.74205972677964        0.02078719938881
C           -1.72394778801993        2.00972759089304        0.08660525170290
C           -1.79863162125255       -0.38015802202821       -0.03702479721569
O           -3.00796694594454       -0.31106573557789       -0.04345552697200
N           -1.15856217834307       -1.61697996878713       -0.09174108669803
C           -1.95791887481895       -2.82064236643965       -0.17139590292915
H            4.04303102704017        3.94240140007699        1.18141167568107
H            4.19768052503786        3.80197150721995       -0.66968237364293
H            2.70489235830592        3.15529265570203        0.18435192914416
H            3.19330921491699       -2.78328904845407       -0.07235438700605
H           -0.98377346965228        2.81107175162993        0.05218678212443
H           -2.40868816576759        2.09746881103419       -0.75676854341373
H           -2.29894009496675        2.05238984500360        1.01369397322554
H           -1.80707926771197       -3.43014701169474        0.72058819653905
H           -1.71601749460108       -3.39184488823227       -1.07101735698181
H           -3.00077559336262       -2.50975197866772       -0.21823097747614
H            0.80596294166267       -3.69086524689618       -0.14569400619214
