25
 energy: 23.896857554840 xtb: 6.6.1 (8d0f1dd)
C            3.02801657306886        1.51609927196337        0.11992461564259
N            2.43743657313607        0.05315459435722        0.00740625642036
C            2.71707545122633       -1.34621627807106        0.12698079319926
N            1.51697603215546       -2.07547847285122        0.07128071988811
C            0.46957093771488       -1.21864997355520       -0.00744588989280
C            1.03626093340340        0.04824486665489       -0.04355447492670
C            0.21878632952041        1.16836068237500       -0.20686204257880
O            0.57173791857010        2.31164122191133       -0.52863351443392
N           -1.17151420473789        0.93343729957285       -0.04839913989979
C           -2.01978594718453        2.11372726732767       -0.02448274943922
C           -1.75631046277084       -0.28164290183040       -0.05250469338509
O           -2.95991447629907       -0.41641183932905       -0.04325654722734
N           -0.90048942907279       -1.40992686223306       -0.05408151652108
C           -1.60517391307834       -2.67517785349078       -0.07988248292664
H            3.56885954468846        1.77389549154611        1.02332874019733
H            3.71224115224109        1.75137259122036       -0.71928443605012
H            2.14951689512759        2.17488766163343        0.08876062601082
H            3.61760531758486       -1.92003644117560        0.10682136463604
H           -1.40998966769846        2.99840903432410       -0.03125843176740
H           -2.62011145999774        2.17653911963215       -0.91285600823584
H           -2.58754952034999        2.15800982636389        0.89375724957336
H           -1.41655700659914       -3.26025801470193        0.82234950326867
H           -1.35291445760679       -3.25874860006976       -0.96588407982167
H           -2.67180639076971       -2.41202749939698       -0.12136147469844
H            1.43631520390671       -3.08788052560507        0.08674095743083
