25
 energy: 37.424643940869 xtb: 6.6.1 (8d0f1dd)
C            3.22949227030313        2.90355435587638        0.47608904038334
N            2.38469045408933       -0.57509544522907       -0.39187801994274
C            2.48161754451257       -1.82541735889334       -0.08590013174727
N            1.25340641946057       -2.44909428380494        0.10233991773796
C            0.32936759079888       -1.46881262924291       -0.08171400713268
C            1.04018397793231       -0.31935390304494       -0.38153856631415
C            0.34679954613252        0.91832460342851       -0.56312516191891
O            0.79133467242834        1.95376468316072       -0.97724989907794
N           -0.99417583949338        0.84331509597389       -0.14080114684747
C           -1.67843074353049        2.08212224792481        0.16808000629816
C           -1.72400241158547       -0.29435551701295        0.02936455587029
O           -2.92574267047822       -0.26953635621932        0.17212133392510
N           -1.02948053901462       -1.50724229118103       -0.04734403012671
C           -1.85150997618144       -2.69412355489915       -0.18309897091537
H            4.01337222029607        3.01305158610512        1.17674103037767
H            3.45667591806835        2.89061997917811       -0.55661124316067
H            2.21899412945950        2.73040702742066        0.80251663740240
H            3.39929469781112       -2.35352987689833        0.06990706662823
H           -0.97134871316075        2.85781609586593       -0.06898822586171
H           -2.56597323573762        2.22324896033043       -0.43119939826890
H           -1.93569878022721        2.08286134160446        1.23100129363224
H           -1.93772726463305       -3.27546472324798        0.73691008400240
H           -1.56030763147251       -3.35427823780651       -1.00400287038261
H           -2.85480103713058       -2.32048867107178       -0.39189380719359
H            1.08622203275332       -3.43888902145178        0.20158490400999
