  25
        -42.15327190
 C          3.5004829813        0.4581251613        0.0224062023
 N          2.3871298735       -0.4501865801       -0.0121897949
 C          2.4317921100       -1.7804362372       -0.0593345414
 N          1.1719201851       -2.2813621608       -0.0543930768
 C          0.2977496414       -1.2292321035        0.0006402360
 C          1.0699981463       -0.0726603227        0.0276166607
 C          0.4224970539        1.2514446763        0.0525214908
 O          1.0525061557        2.2923800434        0.0571864169
 N         -0.9183709548        1.1580351705        0.0592933082
 C         -3.5015744305        3.8067335807       -0.1946444993
 C         -1.6941638378        0.0857135663        0.0454621811
 O         -2.9005855475        0.0989604127        0.0479271194
 N         -1.0385688287       -1.2232300839        0.0189897820
 C         -1.8432738701       -2.4194976555        0.0060381933
 H          3.9415522627        0.4789399242        1.0211602432
 H          4.2615097722        0.1532378015       -0.6936298863
 H          3.1394303705        1.4595255869       -0.2143425050
 H          3.3238015513       -2.3712153823       -0.1049666640
 H         -2.6512153289        4.4598167639       -0.1887293414
 H         -3.8792165666        3.4241050268       -1.1218027605
 H         -3.9534813895        3.5053608208        0.7288748464
 H         -1.6370287182       -3.0355048503        0.8832965957
 H         -1.6692852769       -2.9972685625       -0.9037538399
 H         -2.8869012184       -2.1020094569        0.0309685412
 H          0.9378109281       -3.2629307513       -0.0849710389
