25
 energy: -42.063589767378 gnorm: 0.009487733811 xtb: 6.6.1 (8d0f1dd)
C            3.18585034231527        1.29642902620517        0.01023762199637
N            2.32657917590438        0.15495116387716        0.06004670457977
C            1.10977389213776       -2.25329713664811       -0.93055228323041
N            1.23780858638621       -2.35599007120888        0.41696262879299
C            0.40741440113080       -1.24876144186399       -0.07066127613318
C            0.99906637372283        0.09890087367730        0.05389518583333
C            0.15685854782958        1.28152903660563        0.09792883821735
O            0.57574035479596        2.41925588029660        0.18133403272761
N           -1.21750724367717        1.04149346227896        0.02369623524670
C           -2.10474188277832        2.19824218174719       -0.01278199195744
C           -1.85018648954689       -0.16067616524474        0.04050798451432
O           -3.04034403723091       -0.29319308942529        0.02653904904575
N           -1.00888157504986       -1.33879205829285        0.08937887922262
C           -1.64525433298766       -2.49744644305592        0.21207711124816
H            3.82158431401082        1.31895910680016        0.89671571992621
H            3.83654959623416        1.21239653818495       -0.86217146070129
H            2.60816236947433        2.21633271106253       -0.04274497613021
H            2.79775170289756       -0.74636951853540        0.06902104594364
H           -1.49648936257914        3.09053004679889       -0.14133347951138
H           -2.80839863137006        2.08694252228176       -0.83745062782893
H           -2.67068022824496        2.26556881782768        0.91768974586056
H           -1.11899066604226       -3.43072324207210        0.22024658594073
H            0.81139066223231       -2.95015039497497       -1.69842049324981
H           -2.71781887984501       -2.46624374637748        0.28335845441145
H            0.96519452438170       -3.12164951834253        1.02765238313330
