25
 energy: -42.477699502179 xtb: 6.6.1 (8d0f1dd)
C            3.20924392642942        1.48346636104641        0.17062783170696
N            2.50205547918074        0.19612971377920       -0.01786935129349
C            2.87011243322183       -1.10149185501714        0.04691416565351
N            1.76842403518389       -1.92314322844325        0.03934822819767
C            0.61766388105158       -1.17175124744308       -0.06679528495349
C            1.12221674820162        0.14529065491560       -0.13016965056134
C            0.24759831032252        1.26527456056188       -0.20771846698651
O            0.57804019229834        2.43960976509592       -0.31557256165574
N           -1.06469475326465        0.88476445003416       -0.11652312267466
C           -2.05499506301997        1.94597603988937       -0.04532655543396
C           -1.55605438492936       -0.42077207348057       -0.07891229081992
O           -2.77312380390817       -0.39274344586262       -0.01089618324047
N           -0.68795323878875       -1.51622760980942       -0.08661226631708
C           -2.68367301243933       -2.92183367822556       -0.08502423747563
H            4.07734412657591        1.40373081232556        0.84038130733647
H            3.61178339076661        1.91516777853859       -0.77140006449035
H            2.49824626230983        2.22181265690881        0.61266667395488
H            3.85469442430450       -1.52292917972290        0.15209737039242
H           -1.46007021609942        2.85331279832047       -0.04992057743644
H           -2.71489645526953        1.88080020987027       -0.89960990298416
H           -2.63954755585746        1.85392565401731        0.86895693933533
H           -2.58536798902817       -3.37455022550472        0.86118807409438
H           -2.51755114622978       -3.46233396027216       -0.97100589525322
H           -3.14966540291985       -1.97618050362387       -0.13994182268328
H            1.75756190512622       -2.93188029813055        0.13459017568240
