25
 energy: 3.965059428181 xtb: 6.6.1 (8d0f1dd)
C            3.27149267932357        1.26584044420726        0.11017072939424
N            2.38298456472678        0.12001723043936        0.01730310850289
C            2.68937724136051       -1.24945118098478        0.03517532854339
N            1.50338809338212       -1.94698155884959        0.01306058039541
C            0.45042281788624       -1.10916988208980       -0.02049283997520
C            0.97571929272205        0.19984684158695       -0.01586875951353
C            0.13894078834659        1.33353504338785       -0.03904723216808
O            0.42993776249063        2.53505327987276       -0.04656340864307
N           -1.24570274922604        0.96282661395944       -0.04695479378282
C           -2.19150970704685        2.06020699778959       -0.04860793976885
C           -1.78075776249389       -0.27174480836896       -0.06074303171511
O           -2.99004532301817       -0.43251061585806       -0.07634429911901
N           -0.91889998377695       -1.39545423921399       -0.05029560459968
C           -1.73906229872252       -2.61473360235536       -0.06169108060579
H            3.83586161711690        1.29498666704777        1.05120238208049
H            4.00735380326625        1.30664526756281       -0.70798897515821
H            2.66732623250788        2.18410716310462        0.08552942561918
H            3.64376121285493       -1.73603212379527        0.06085747228742
H           -1.60004052786070        2.97930630739143       -0.02775766828748
H           -2.80591786840821        1.99124964076818       -0.94581518431776
H           -2.82972535991546        1.97106000154920        0.82998443338770
H           -1.62651565676666       -3.22654261949549        0.83516348728410
H           -1.60190286116044       -3.22149094504764       -0.95862365436689
H           -2.75460377890103       -2.25574401038636       -0.07621449931743
H            1.41285633388875       -2.94738031425529        0.03007185421087
