25
 energy: 49.276667984540 xtb: 6.6.1 (8d0f1dd)
C            3.37749567947873        1.64454825608473        0.14135621713185
N            2.67614279903892        0.36066424530026        0.01267038745376
C            3.09661036902448       -0.90843503004015        0.06678609111184
N            2.05663266025382       -1.78927749729480        0.03322914762359
C            0.87484661777190       -1.06031011947717       -0.04478735358931
C            1.31445122098529        0.28108715295098       -0.08050247576248
C            0.38418071652737        1.36039927338806       -0.14234378526220
O            0.69043336958887        2.54579339058287       -0.19861579257933
N           -0.89538102352205        0.87821057298277       -0.12232222701264
C           -2.00474144388542        1.81796565497556       -0.05574135961218
C           -1.32396653913300       -0.47175820065328       -0.06414659078353
O           -2.52956012986627       -0.55938781804116       -0.00650671778169
N           -0.38139128165906       -1.48357969515370       -0.05666489288716
C           -3.49628786823930       -3.23390803796344       -0.09831313675302
H            4.27301762038894        1.54549441276163        0.74268978798826
H            3.66274911327273        2.10958636582988       -0.80533202216710
H            2.72319876001403        2.39344996367374        0.58358643743775
H            4.10598122032722       -1.24329339457274        0.15473589172078
H           -1.62272326346167        2.84138595205050       -0.03037803911772
H           -2.65937422812131        1.65500138521707       -0.91400572812567
H           -2.60196918553461        1.59940202947569        0.83713736293678
H           -3.55170687302111       -3.74824886325104        0.82220572287894
H           -3.50771736749568       -3.79543622317245       -0.99123709137496
H           -3.69921255894635       -2.18215226885556       -0.12484462236317
H            2.11329769181076       -2.80754106107896        0.11014992496940
