25
 energy: 55.130003443156 xtb: 6.6.1 (8d0f1dd)
C            3.31176776750531        1.58340495356055        0.17282265746397
N            2.61646942114015        0.29877716597471        0.01500114255282
C            3.02536078617270       -0.97862445433124        0.05744390272178
N            1.96809341733999       -1.84436461676156        0.02935257436018
C            0.79332520372789       -1.10596440204689       -0.05357372516878
C            1.25376059974105        0.22724127966480       -0.09137435272105
C            0.34372148697596        1.32290870013667       -0.17065506632781
O            0.67477658689088        2.49776255056224       -0.25450690543922
N           -0.95207221471402        0.88768157653279       -0.12350692595316
C           -2.05607087481268        1.84108939047480       -0.05229920923267
C           -1.39917331758865       -0.45181988049875       -0.07075304172114
O           -2.61187999664737       -0.48445540994589       -0.01152032299467
N           -0.48091627047122       -1.49827518396066       -0.06703632182738
C           -3.27285730593400       -3.09635317501563       -0.08875474883747
H            4.20897822487036        1.47339193601065        0.77248546200856
H            3.54009462298638        2.07578628466285       -0.77533249078813
H            2.68813008987930        2.31096125980110        0.69073679148976
H            4.02856229067917       -1.33422490620335        0.15192485302040
H           -1.68382571852784        2.86527905964344       -0.01581331330940
H           -2.71247475078710        1.68042119544733       -0.90984777400242
H           -2.67196541165454        1.61336579799373        0.82771147792416
H           -3.25373662218340       -3.60247404679771        0.83313262248136
H           -3.21407960442773       -3.64010718286587       -0.98503991549680
H           -3.52299904308019       -2.06551652199702       -0.11132137941489
H            2.00694625392427       -2.86313472626754        0.09107822691836
