25
 energy: 39.476249983319 xtb: 6.6.1 (8d0f1dd)
C            3.51954931491098        1.70313221726050        0.11160051915937
N            2.77500305486028        0.46159706568128        0.04857031578413
C            3.22197086904231       -0.78782205765575        0.07826220001506
N            2.19022484851914       -1.66407435200817        0.03713404675497
C            1.00781259956374       -0.94337595749417       -0.01877733767172
C            1.41032411689712        0.40437335288363       -0.02219210125530
C            0.42011595994653        1.44263641897326       -0.05927912400121
O            0.66157061616665        2.64146165715846       -0.06689989275624
N           -0.84042588463900        0.89648385172119       -0.08137542394355
C           -1.97922649553384        1.78982551040273       -0.06180987826069
C           -1.20913270929620       -0.48210935723982       -0.05425591100197
O           -2.39917217481003       -0.70493140841179       -0.03611463221184
N           -0.21589165351410       -1.41338007128359       -0.04292500321667
C           -3.95464909434313       -3.59293735810261       -0.12050246640781
H            4.28232074356896        1.67021448964972        0.88307934606322
H            4.02439428495405        1.91661568412368       -0.82753613799254
H            2.83398041104990        2.53453384586559        0.29441239745288
H            4.24895908802861       -1.08367124478974        0.13066063989292
H           -1.58612202602691        2.80069205022115       -0.05153758501724
H           -2.59249344820583        1.61643248724401       -0.94579141018505
H           -2.59199018770359        1.56046729852845        0.81467635293118
H           -4.14941688321624       -4.07206294306280        0.80639654614617
H           -4.13356001157466       -4.11245739805467       -1.02890163518014
H           -3.73741141424082       -2.55904599553261       -0.13205025174977
H            2.26374467658861       -2.67448747136150        0.10084572973641
