  25
        -42.14591354
 C          3.8127749507        0.8267202982        0.1196730197
 N          2.8300529127       -0.2165453697        0.0452078210
 C          3.0434143493       -1.5158327826       -0.0290351096
 N          1.8912942979       -2.1897835229       -0.0959645374
 C          0.7931653905       -1.2945317677       -0.0792676152
 C          1.4427179345        0.0179453447        0.0272195236
 C          0.8407552996        1.1954236996        0.1167223765
 O          0.2609573490        2.1940323265        0.1837118811
 N         -3.0226094180        1.7658370439       -0.2272480871
 C         -3.5288938972        3.0223481869       -0.6076420851
 C         -3.1899433026        0.6907787122        0.2476117523
 O         -3.1450641825       -0.3849974119        0.6757256333
 N         -0.4390637584       -1.5085623990       -0.1449198414
 C         -1.1054646494       -2.7607521269       -0.2217894958
 H          3.6922909245        1.3949112999        1.0444894724
 H          4.8102992958        0.3928165197        0.0955019217
 H          3.6989257679        1.5109186795       -0.7237465166
 H          4.0178069123       -1.9691518349       -0.0392925215
 H         -2.6823491716        3.6988627856       -0.7298041434
 H         -4.0604854694        2.9421235119       -1.5586992210
 H         -4.2053899159        3.4225462983        0.1506219418
 H         -0.5602941832       -3.5891937167        0.2408860972
 H         -1.2995359564       -2.9988504310       -1.2703058225
 H         -2.0689964568       -2.6338330724        0.2719609607
 H          1.8078766075       -3.1925065656       -0.1643475083
