25
 energy: -42.164416294815 gnorm: 0.009500510965 xtb: 6.6.1 (8d0f1dd)
C            3.28579157205437        0.99489292546730        0.01540361230951
N            2.31444009146726       -0.06263728851999       -0.01210548646244
C            2.56040874036265       -1.37013789346232       -0.00377694921192
N            1.39102228231971       -2.05877943134206        0.00564806994766
C            0.37675696975631       -1.15544561729162        0.00838758523292
C            0.95055026786104        0.12039632921258       -0.00767248620336
C            0.16852662967572        1.28875542160586       -0.04723597102212
O           -1.42669757127459        3.33799250323253        0.41347699581545
N           -1.14004888680885        1.04081498970084       -0.02515032837014
C           -2.07126318761570        2.21081030700037        0.00367513187509
C           -1.78883906645554       -0.20252030858696        0.00111623722153
O           -2.98321044877210       -0.30288953612928        0.00633556634974
N           -0.95468065245053       -1.33486635854848        0.01302570875580
C           -1.55197723940369       -2.65568438584164        0.02621969678362
H            3.77735727717605        1.03402954240244        0.98880400869700
H            4.04071821367522        0.83912926250301       -0.75432265549382
H            2.76838644304468        1.93629227654638       -0.15740807927752
H            3.53236033873782       -1.82213919757705       -0.00538669189559
H           -0.86119453268048        3.71970063580241       -0.27675665099506
H           -2.52453412118464        2.28405259007577       -0.99555494659431
H           -2.85642426528959        1.98513623490960        0.73285922197161
H           -1.23731144061396       -3.20690262360283        0.91320899229962
H           -1.27850833993808       -3.20652514945242       -0.87455632354711
H           -2.63295972113023       -2.52951375197301        0.05064655754216
H            1.30176216158697       -3.06572293453154        0.01229080217192
