  25
        -42.07845563
 C          2.5040469641        0.8733072100        1.2612033134
 N          1.9433153864       -0.0806872523        0.3289698560
 C          2.7455433717       -0.9410305325       -0.3568272856
 N          2.4462413019       -1.7655961947       -1.2575869340
 C         -0.1975056987       -1.1107533015        0.0936960098
 C          0.5497208685        0.0137575867        0.0704149790
 C          0.0690918151        1.3094687844       -0.2605129223
 O          0.6699818796        2.3022867319       -0.5347129455
 N         -1.4646996110        1.4455708589       -0.2167226374
 C         -1.9885927448        2.7043719993       -0.7645660566
 C         -2.1914037098        0.6421634122        0.4081184057
 O         -2.7958111379       -0.1338343438        1.0093217838
 N         -0.7837808179       -2.1168572087        0.2879860316
 C         -1.3571482040       -3.3337153346       -0.0635754260
 H          1.8072469212        1.0349992017        2.0840223549
 H          3.4375545266        0.4843862565        1.6615454516
 H          2.6992654145        1.8325374927        0.7741069376
 H          3.7885077079       -0.8977543961       -0.0563967436
 H         -1.1501549266        3.2122805053       -1.2425268838
 H         -2.7696540525        2.4989569234       -1.4929051689
 H         -2.3788154708        3.3354633481        0.0327901232
 H         -0.8633481685       -4.1184023966        0.5133646465
 H         -1.2634240920       -3.5464311679       -1.1309438794
 H         -2.4096510850       -3.3136346349        0.2267469974
 H          1.4995540821       -1.8355977607       -1.6122164948
