  25
        -42.11004762
 C          2.8285720135        1.2889428942        0.0567798734
 N          1.9868447396        0.1253281616        0.0084338058
 C          2.3785489736       -1.1462585634        0.0501965148
 N          1.2932728329       -1.9365501522        0.0154333180
 C          0.1790135808       -1.1227328119       -0.0595454427
 C          0.6238409087        0.1751019380       -0.0659138498
 C         -0.1221945508        1.5101381999       -0.0453424481
 O         -0.1542601500        2.1101201844        1.0259126631
 N         -0.5874402314        1.8200871505       -1.2215808864
 C         -1.2451670255        3.0491060698       -1.4842935511
 C         -1.9349686629       -1.2472530068        0.8982402768
 O         -2.3746742959       -0.7260403223        1.8364645299
 N         -1.1365882468       -1.6367423761       -0.0255538575
 C         -1.5398070807       -2.6127300431       -1.0442230941
 H          2.6195827157        1.8537114537        0.9679664413
 H          3.8741879720        0.9922441808        0.0386985934
 H          2.6129123143        1.9346312815       -0.7952272230
 H          3.3933616614       -1.4880593917        0.0986091329
 H         -0.6307416011        3.9055006210       -1.1860503599
 H         -1.4392601027        3.0996347465       -2.5556330539
 H         -2.1950021258        3.1157766377       -0.9430692606
 H         -1.2197002407       -3.6184466106       -0.7675119638
 H         -1.0940178971       -2.3317271956       -1.9966001757
 H         -2.6227881831       -2.6063011959       -1.1439317345
 H          1.3040896284       -2.9460413124        0.0332796956
