25
 energy: 38.780556863543 xtb: 6.6.1 (8d0f1dd)
C            3.36411347374558        1.88790261172180        0.22351013161329
N            2.37576459965566       -0.18658270309064       -0.05787282089079
C            2.56096390094810       -1.47803797006220        0.07638255469813
N            1.37003554072676       -2.17333370189367        0.05996511688362
C            0.38543286462015       -1.24787972036575       -0.03027328317165
C            1.01362158895098       -0.00286230470484       -0.06360061075002
C            0.21740401949826        1.19061243429004       -0.12938927221064
O            0.59706806852024        2.33483903409808       -0.26245601022180
N           -1.16675666021455        0.93247981059204       -0.05207413876323
C           -2.03070872145795        2.10280023362233       -0.01274890048985
C           -1.78382809457863       -0.28246856330162       -0.04680498442518
O           -2.99220433603850       -0.38328514866350       -0.02781727857546
N           -0.96582190777031       -1.41940699493593       -0.06143173611497
C           -1.65627910105592       -2.68690494740595       -0.06573201954784
H            3.73330400084951        2.03497588770019        1.19137064265384
H            3.99109923851179        1.84317039381033       -0.62246536650449
H            2.40783663835672        2.31033206147840        0.03118259444442
H            3.51178885495495       -1.97830262635358       -0.01657640388302
H           -1.35259142053854        2.94886870770872       -0.12324625233273
H           -2.80359666183594        2.02600753774115       -0.75688281851597
H           -2.48055508380515        2.17382599705791        0.96714279533383
H           -1.41649551710165       -3.27053374691263        0.82392828997961
H           -1.42044997504022       -3.25622707369444       -0.96526779562722
H           -2.71832920803391       -2.43519470147708       -0.06156146154857
H            1.27487472521296       -3.17476598249239        0.05887382773630
