25
 energy: -6.137792692827 xtb: 6.6.1 (8d0f1dd)
C            3.23500517930622        1.22310153320424        0.09262366678663
N            2.32984633639348        0.10331334739164        0.03430299568106
C            2.61287938968625       -1.25585546403770        0.03113686441599
N            1.42141420371670       -1.95343626091920       -0.00133729603845
C            0.40385338167419       -1.07452501561054       -0.01308130363017
C            0.93640380093315        0.20756982418772        0.00836901803201
C            0.12989120718115        1.36438996632891       -0.00910321926548
O            0.51525394670365        2.53690107569258       -0.01353785953286
N           -1.25747550592341        1.03720431197652       -0.03063579175970
C           -2.19739544604963        2.14347784107480       -0.04628389694285
C           -1.81592679276639       -0.20416084976780       -0.04739823948251
O           -3.01642375402054       -0.38460942471805       -0.06918940599941
N           -0.94009857042460       -1.30853885670022       -0.03918387694930
C           -1.49031349765791       -2.64403374665618       -0.06074346307743
H            3.72223092116035        1.30291196421711        1.07027551509401
H            4.01499116064230        1.12504977300282       -0.66860977651616
H            2.65882328902547        2.13146084126642       -0.08136777030370
H            3.58045859619086       -1.69040575632465        0.04152994499699
H           -1.62900687001578        3.06976284830444       -0.02856652967036
H           -2.79706803609814        2.09355964243092       -0.94982801976887
H           -2.83992291997237        2.08668722900860        0.82851671818890
H           -1.19501030498647       -3.20151816346714        0.83126640324522
H           -1.17299662394981       -3.18212107162294       -0.95712713358720
H           -2.57506639773046       -2.54015516520745       -0.07367713802187
H            1.34878431685115       -2.95731108091019       -0.01379889892287
