25
 energy: 31.462621744518 xtb: 6.6.1 (8d0f1dd)
C            3.82712227474813        2.72949240252678        0.30455617842880
N            2.26895864384463       -0.54360861880291       -0.10627940937838
C            2.37273793927499       -1.83000818119979       -0.06711749498313
N            1.14345414556127       -2.45739800446510       -0.01359810356906
C            0.22714520403018       -1.45378685522814       -0.04035928742934
C            0.93697472986426       -0.26330782809343       -0.07984000173339
C            0.25101436531311        1.00112276499031       -0.08898642716635
O            0.76365842982072        2.09391033243495       -0.10491783172010
N           -1.14025806587741        0.85445832039323       -0.05604747145342
C           -1.93459033718727        2.07359180336547       -0.04038900017421
C           -1.85499239545175       -0.31910653771603       -0.05083955043143
O           -3.06675104252536       -0.32160066943145       -0.03931652068497
N           -1.13151151814239       -1.51023150790646       -0.05952335514509
C           -1.87234408243378       -2.75069353768358       -0.08426469430043
H            4.17703513238162        2.94679716752599        1.28757217022824
H            4.45860267776676        2.68160491497588       -0.54792768887804
H            2.79582903113067        2.68956156941715        0.09116105859096
H            3.31923544163078       -2.33174478434280       -0.05231738446198
H           -1.26126567701753        2.90796140556778       -0.19911830348942
H           -2.65762380175003        2.04498415408528       -0.85015833478191
H           -2.43581729484856        2.16984918524689        0.91551723380663
H           -1.62761635020409       -3.36859714741581        0.78071175801749
H           -1.67114558078408       -3.30997305113910       -0.99953911605743
H           -2.92880331386146       -2.48265869479925       -0.04741592476834
H            1.00273901667323       -3.45607349008324        0.01008891403389
