25
 energy: 3.279960743610 xtb: 6.6.1 (8d0f1dd)
C            3.19201996552101        1.36625321588638        0.11253596226477
N            2.40903801603812        0.07666784083907        0.05073368767184
C            2.65380308909491       -1.32691450809598        0.05275988949674
N            1.44248958885626       -2.02072867552732       -0.00620389103578
C            0.42965787725795       -1.13320488550328       -0.02021517486149
C            0.99316972169393        0.14092979857677        0.00487792369425
C            0.17416236121739        1.28461041147947       -0.02693299763292
O            0.55464241000372        2.45447104452005       -0.06728363746083
N           -1.22144683586449        0.98895682250515       -0.03145615421490
C           -2.11964271348022        2.12662023046681       -0.03170009480321
C           -1.80036394188221       -0.23832536205527       -0.04775613031557
O           -3.00456959097596       -0.40276424818159       -0.06203731107119
N           -0.93093975210044       -1.34873912487887       -0.04727742620875
C           -1.54503494543848       -2.65844883912392       -0.06296990048384
H            3.68594997602583        1.55733341111814        1.07391354514064
H            3.98826805061542        1.38657013592967       -0.64994251714899
H            2.49494718917670        2.18000566271908       -0.06138700415377
H            3.58992080147325       -1.82443366777021        0.03153890857346
H           -1.50786195076151        3.02275427758538       -0.04558423161345
H           -2.72466655454501        2.08069826307284       -0.91449939464356
H           -2.71291345908327        2.11819829939880        0.87066388234788
H           -1.27689340708375       -3.22971114726910        0.82808552623800
H           -1.26321540483670       -3.21300033782180       -0.95999115630959
H           -2.62589220346380       -2.50138465422478       -0.07085074400847
H            1.31636818107356       -3.02608305478040       -0.02673732729712
