25
 energy: -42.075358408994 gnorm: 0.005139100044 xtb: 6.6.1 (8d0f1dd)
C            3.20794911910238        0.98563503344547        0.22774407543091
N            3.16831306062780        1.55057704562736       -1.02559049662639
C            2.34140728378499       -0.25090248497273        0.24154402939062
N            0.80316707678104       -2.63151676457265       -0.43849655828558
C            0.27570272752611       -1.52263857272655       -0.12607387942818
C            1.01119412359514       -0.25176843739829        0.02273517330319
C            0.23006757393575        1.00741351850120       -0.03411899817133
O            0.75765063043025        2.09444581177266       -0.12746753982811
N           -1.12977193986021        0.87379449618851        0.08478373839466
C           -1.95131042012530        2.07118416636767        0.11548668874758
C           -1.82311635422549       -0.32956639159693        0.19537398323206
O           -3.01100423132112       -0.34431849111824        0.37738200205519
N           -1.08045888375095       -1.49007574374728        0.05631922764466
C           -1.79409451357598       -2.74852236380748        0.01802387070123
H            2.87309160220630        1.68030165964971        1.02222328467821
H            4.24501949028658        0.67689788326248        0.44269988959381
H            2.76984152620790        2.46453208033199       -1.19423376515582
H            2.86094763150268       -1.18822802292757        0.38731546589558
H           -1.29965923231430        2.94189254357452        0.10144616494004
H           -2.61713065722140        2.08641325894108       -0.74914617048139
H           -2.56985296771461        2.06939443717216        1.01436688212606
H           -1.46099693848601       -3.39022911420215        0.83555345780235
H           -1.57860840232962       -3.26122069877235       -0.92135706511296
H           -2.86088383885931       -2.55136595289254        0.11050088392455
H            1.79296804789688       -2.72389035449693       -0.60584272686962
