25
 energy: -42.151697857387 gnorm: 0.004847118842 xtb: 6.6.1 (8d0f1dd)
C            3.22931722026143        1.13074573183174       -0.06875349401647
N            2.22192871645766        0.10261488247335       -0.09073806172895
C            2.44445761500522       -1.20005963036430       -0.08486001869659
N            1.26968491098821       -1.86416331875834       -0.09094179264265
C            0.25056945252986       -0.95031697511427       -0.10622668710382
C            0.85949707067016        0.31576345205114       -0.09215063934560
C            0.16376920630305        1.57214366088513        0.10600933092679
O            0.66589400515145        2.66390763819056        0.24082999431262
N           -1.23073308323931        1.33620643593879        0.17819764798072
C           -2.08278092096355        2.17867801443310        0.60424640230916
C           -1.94728179737464       -0.14580559689486       -0.66454116897390
O           -3.12612558143111       -0.19641282187020       -0.40782001567166
N           -1.05377312428200       -1.19566439717016       -0.13917967959206
C           -1.63779575303369       -2.47183024246333        0.19894146775421
H            3.70540272363961        1.17154068994003        0.91210878783971
H            3.99121873177090        0.92707979481706       -0.81989966564805
H            2.76267711896961        2.09405639405768       -0.26559450496891
H            3.41041362843624       -1.66611381316849       -0.07564618867895
H           -1.80261210234260        3.16242830306581        0.95996679001133
H           -1.55242214714503        0.20906295609453       -1.63509085748625
H           -3.12109481161213        1.86833142485172        0.59200247422749
H           -1.18539209269670       -2.86918132236826        1.10714799509969
H           -1.53716609911836       -3.19214635853801       -0.61617988064683
H           -2.69993625427232       -2.29410465109107        0.37361883044822
H            1.16271488142862       -2.86852170922930       -0.08427544780833
