25
 energy: -42.452882385674 xtb: 6.6.1 (8d0f1dd)
C            3.27729872434142        1.27340261033013        0.07922543301545
N            2.35212567967895        0.17628573181215       -0.00731046784524
C            2.64444698481500       -1.11290659586608       -0.06646559381132
N            1.52623323001801       -1.84968191285197       -0.12486379354495
C            0.44036283313417       -0.98793572722398       -0.11163942607041
C            0.97452719041801        0.32045967930716       -0.04261457958069
C            0.16265130443837        1.47062334320213       -0.02975964129984
O            0.53884922792467        2.64434268613939       -0.00187174902711
N           -1.20528916455939        1.11803524108146       -0.06479785738213
C           -2.16853913711305        2.21138596085952       -0.02520583901054
C           -1.75900136233936       -0.13110844344703       -0.11267589236176
O           -2.95400567211494       -0.31007339206521       -0.12919013081731
N           -0.87126922195430       -1.26872401795134       -0.14882122186325
C           -1.41055684294445       -2.50823648293387       -0.18376075515776
H            3.74198853539562        1.29862534498882        1.06710180628260
H            4.05292081734109        1.17261078198859       -0.67957593496682
H            2.71482829787590        2.19570664884762       -0.07277417947284
H            3.63776030037285       -1.51353871863256       -0.06942721642057
H           -1.61131516321250        3.14572610740169       -0.00599373547898
H           -2.80826301698141        2.17085924994160       -0.90736113917116
H           -2.79722845518934        2.12657836785405        0.86109301593149
H           -2.85937262436174       -4.78159766477934        1.09655263219636
H           -0.77213502625479       -3.36870719410638       -0.16141055408537
H           -2.47337147369616       -2.57704129524124       -0.28533435377080
H            1.47504941287724       -2.85673632897623       -0.16874971557481
