  25
        -42.14351429
 C          3.1870545383        1.1492417993       -0.1480831026
 N          2.2236713908        0.0831134972       -0.0791885021
 C          2.4927106866       -1.1986132295        0.0424621800
 N          1.3452463518       -1.9032944329        0.0982675523
 C          0.2888774586       -1.0336862802        0.0034247469
 C          0.8529457421        0.2495700483       -0.0921799358
 C          0.1436308134        1.5145625872        0.0300111105
 O          0.6437391702        2.6083468047        0.0705558208
 N         -1.2433175004        1.2494044115        0.1794424172
 C         -2.0868480141        2.1436366843        0.4675736517
 C         -1.9435883022       -0.4432475971       -0.6585548516
 O         -3.1091274968       -0.4907546809       -0.4033732057
 N         -0.9980331205       -1.3586082035       -0.0269574865
 C         -1.5040912551       -2.6117390592        0.4924012149
 H          3.4298075114        1.5024661744        0.8569054247
 H          4.0979773606        0.8000836321       -0.6320203435
 H          2.7653682470        1.9866429513       -0.7018135091
 H          3.4745956982       -1.6294345537        0.0885639240
 H         -1.8242680356        3.1892431397        0.5992249166
 H         -1.4982987524       -0.0748673384       -1.5978854260
 H         -3.1172777241        1.8322327348        0.5802797053
 H         -1.0492906179       -2.8404679651        1.4552291006
 H         -1.3370467796       -3.4326962606       -0.2079123286
 H         -2.5782606152       -2.4849696905        0.6277472671
 H          1.2740579910       -2.9061318736        0.1973338030
