72
 energy: -99.363449037390 gnorm: 0.001294647891 xtb: 6.6.1 (8d0f1dd)
N           -1.65914364492977        2.91627371938734        2.25889432963278
C           -1.61951672199366        2.20647643179634        1.23311348312688
C           -2.78678406660734        1.96709476785267        0.31479876449461
C           -3.25456998916825        0.52535108233806        0.44517650421305
C           -4.17039378092785        0.01014302992777       -0.47445494732227
C           -4.64114116479313       -1.28872101630594       -0.37764496663013
O           -5.52323913151388       -1.86242987981521       -1.22012551209072
C           -6.09216647913613       -1.09436963525015       -2.25437994988904
C           -4.18322604675370       -2.12213810076997        0.67977669238643
O           -4.69415488122010       -3.36783312853096        0.69661916108808
C           -4.36395801235442       -4.23223112419867        1.75906184596487
C           -3.27482092562377       -1.60361434804840        1.58941765375414
C           -2.81729498335790       -0.29722954212384        1.47239722526600
C           -2.25917651101034        2.22572908002111       -1.12013768159300
C           -1.33417228623711        1.12199164647711       -1.66115533665120
C            0.03854526334879        1.15955440135314       -1.10845576139105
N            0.73928071942354        0.11271427314891       -0.71260472436302
C            2.16864788417786        0.20955380022244       -0.52822553810316
C            2.92009206458884       -0.43095075439916       -1.71112495056331
C            4.39566508280809       -0.19381558862631       -1.55055139921277
C            4.98760530048783        0.93292374238986       -2.10455741704231
C            6.34109654972147        1.17013937697515       -1.91588626401101
C            7.10271260792472        0.30206209807315       -1.16321296578681
O            4.33296708472973        0.30787942929348        1.78754253947742
C            5.42579317643546        0.70885750325852        2.09120352913802
C            6.51542019350340       -0.83442094293962       -0.59283769607741
O            7.33614984682856       -1.61134018769953        0.14577327515574
C            6.82772931368158       -2.77811314413668        0.75077635722534
C            5.15997762385403       -1.07898773217034       -0.80237690622806
C            0.14786990943062       -1.19362650303731       -0.55090207138210
C           -4.00263850425312        2.89734505140004        0.60680870576257
C           -4.62059673402367        2.60282025720628        1.97138512919448
C           -3.66112713347026        4.38112835233801        0.50568792981867
H           -4.53160652098404        0.63960050477153       -1.27050585980228
H           -6.63311542474427       -0.22875047125223       -1.86059379960126
H           -6.79275182599550       -1.75729007764994       -2.75820360085029
H           -5.33464427094959       -0.75962301622349       -2.97063919053100
H           -4.65582604644668       -3.80899568769836        2.72457408549809
H           -4.92911659111061       -5.14456374712359        1.57901228869471
H           -3.29449295264466       -4.46506184461935        1.76976159403820
H           -2.92134132372863       -2.20756940297903        2.40915464567825
H           -2.13280083333794        0.07980898752835        2.21640948401315
H           -3.10970038254884        2.31781705334813       -1.79435827490923
H           -1.72570807149929        3.17682725230150       -1.13389585787945
H           -1.80070765933327        0.14825303359953       -1.52233334589020
H           -1.23734029794639        1.29413837886081       -2.74128397344316
H           -0.70116779298541        1.70778154227497        0.86575715973744
H            0.57241523819882        2.09681668942075       -1.17940614193125
H            2.46229076944397       -0.28144207855504        0.40190258633755
H            2.45629132984148        1.25952956579142       -0.45480426646619
H            2.56907265760323        0.02162495534356       -2.64070793817764
H            2.71247086585712       -1.50105348633393       -1.74535977594898
H            4.39622586979211        1.61923898725063       -2.69186181335014
H            6.80115408831208        2.04026328798343       -2.35760609268776
H            5.90010358110466        1.56461708089182        1.58941291428038
H            8.15443721775024        0.47424569361490       -1.00192436750578
H            6.02447951630189        0.24804565533845        2.88973551567848
H            7.66206889363452       -3.21118999735429        1.29935624692410
H            6.01556256425427       -2.54642926461967        1.44689685520616
H            6.47669682563339       -3.49546007250846        0.00293930054496
H            4.68725261579153       -1.95228832884537       -0.38116051366285
H           -0.05735245410001       -1.66079262654505       -1.51669530936154
H           -0.78697293679739       -1.12202933236247        0.00941540724975
H            0.83609040384459       -1.82770484659879        0.00285878462285
H           -4.75435410890172        2.67002955596127       -0.15796248914564
H           -3.90818337098949        2.82693445054812        2.75878510286753
H           -4.92046928573261        1.56083609637376        2.05170981819335
H           -5.50109745835119        3.22387955399908        2.11330066155711
H           -2.90001062607060        4.64409611498814        1.23390763609324
H           -3.31655964377002        4.65304393895406       -0.48849966550100
H           -4.55140203554359        4.96651339490040        0.71999144298412
H           -0.80480654954584        3.03222561433465        2.79438655169494
