  72
        -99.44859477
 N          0.0711527294        2.4287043315       -0.2857886913
 C         -0.8379731947        1.2985679277       -0.1732634277
 C         -2.3808514397        1.5522306266       -0.1685700207
 C         -3.1311418765        0.2643823979        0.1818347435
 C         -4.5248644827        0.2686410307        0.0591673261
 C         -5.2966705676       -0.8434711648        0.3461640915
 O         -6.6412784605       -0.9063666788        0.2564772696
 C         -7.3664273894        0.2413010151       -0.1159413030
 C         -4.6627662808       -2.0408562885        0.7714851241
 O         -5.4854558734       -3.0758099070        1.0318082928
 C         -4.9372715981       -4.2890195682        1.4913233355
 C         -3.2830130532       -2.0493280090        0.8783442388
 C         -2.5306166478       -0.9169172662        0.5877461931
 C         -2.6326404903        1.8212602889       -1.6658890539
 C         -1.8215962971        0.7178383146       -2.3563478724
 C         -0.6797673122        0.4827570176       -1.4306898102
 N          0.3649359465       -0.2683519844       -1.7239930851
 C          1.5635231175       -0.3139375663       -0.9170720761
 C          2.7276797265        0.4273238562       -1.5989032604
 C          3.9719072636        0.3626134518       -0.7560507281
 C          4.4858454416        1.4956786185       -0.1494691703
 C          5.6490340276        1.4334600108        0.6044546207
 C          6.3133933509        0.2291247850        0.7822391287
 O          7.4476930061        0.0508139661        1.4863592679
 C          8.0758228959        1.1671490475        2.0732000984
 C          5.7819135763       -0.9449632376        0.1809289784
 O          6.4797917568       -2.0757389513        0.4156813669
 C          6.0201725465       -3.2919539746       -0.1217747673
 C          4.6296339694       -0.8547413689       -0.5819052959
 C          0.4075811975       -0.9894524269       -2.9751837221
 C         -2.8606277221        2.6555234578        0.8100087578
 C         -2.3246944776        2.3872448869        2.2179553299
 C         -2.5708966397        4.0985519948        0.3972694174
 H         -5.0233317618        1.1668092428       -0.2676874286
 H         -7.2036444948        1.0651114285        0.5857834732
 H         -8.4135917167       -0.0533135872       -0.0863884287
 H         -7.1130993315        0.5668125465       -1.1299700006
 H         -4.3977897586       -4.1538707271        2.4337197292
 H         -5.7862513415       -4.9502537781        1.6536835776
 H         -4.2688588464       -4.7346443686        0.7477942005
 H         -2.7692613151       -2.9421971358        1.1959135156
 H         -1.4623200025       -1.0037905016        0.6963123659
 H         -3.6847746233        1.7846039000       -1.9332792747
 H         -2.2428439778        2.7974410657       -1.9518684660
 H         -2.4272963287       -0.1882700669       -2.4645374087
 H         -1.4875029981        1.0069204369       -3.3555688794
 H         -0.5395376677        0.7626085748        0.7284258587
 H          0.2528806912        2.8938656779        0.5984482242
 H          1.8364068522       -1.3604335408       -0.7537616764
 H          1.3765559635        0.1568933194        0.0451960130
 H          2.4349460341        1.4671315704       -1.7459179859
 H          2.9292395917       -0.0218133682       -2.5733713691
 H          3.9892179170        2.4456229073       -0.2729632710
 H          6.0332706143        2.3363365238        1.0500303902
 H          7.4360410356        1.6389903994        2.8251855280
 H          8.3617302364        1.9071053285        1.3195990075
 H          8.9709844496        0.7782267900        2.5549050566
 H          6.7296945869       -4.0462509317        0.2126904759
 H          5.0224591530       -3.5436776063        0.2527701436
 H          6.0067961663       -3.2695515822       -1.2159520993
 H          4.2393556789       -1.7365427998       -1.0657370241
 H          0.6195004688       -0.3196122147       -3.8119188426
 H         -0.5475663032       -1.4795384988       -3.1613496745
 H          1.1858590699       -1.7475944968       -2.9304909120
 H         -3.9496632483        2.5683352636        0.8640907821
 H         -1.2551029425        2.5736699591        2.2822194261
 H         -2.5184603203        1.3580690721        2.5118121975
 H         -2.8184052861        3.0426949865        2.9307147863
 H         -1.5079855746        4.3175762077        0.3615568055
 H         -3.0150834586        4.3345198845       -0.5660849715
 H         -3.0159496660        4.7636117401        1.1339519065
 H         -0.2227057040        3.0886593113       -0.9998821564
