  25
        -42.10968527
 C          2.8208182563        1.3110039775        0.0206488637
 N          1.9928211748        0.1373043639       -0.0187141531
 C          2.4020519251       -1.1303855726       -0.0073667742
 N          1.3244784648       -1.9344452019       -0.0186070532
 C          0.2003993814       -1.1323216965       -0.0439554702
 C          0.6275484187        0.1711848378       -0.0530934755
 C         -0.1355884477        1.5004555732       -0.0074549982
 O         -0.3229402562        1.9896632883        1.1041120573
 N         -0.4318787876        1.9180990140       -1.2033232109
 C         -1.0674584097        3.1641324270       -1.4501522645
 C         -1.9419295197       -1.1829655019        0.8592742796
 O         -2.6621437658       -0.6981673347        1.6230595181
 N         -1.1055080551       -1.6649477321        0.0250725952
 C         -1.4630987143       -2.7716677735       -0.8784510869
 H          2.5089956901        1.9459465502        0.8521481143
 H          3.8622373633        1.0262280082        0.1474279000
 H          2.7037363964        1.8802073023       -0.9028269446
 H          3.4215246110       -1.4602784836        0.0079252341
 H         -0.5317573332        3.9914257036       -0.9722489084
 H         -1.0877713774        3.3179771197       -2.5291162873
 H         -2.0948691587        3.1670185046       -1.0699927235
 H         -1.1291352731       -3.7256601640       -0.4684014749
 H         -1.0012567783       -2.5984419911       -1.8488635630
 H         -2.5432435347       -2.8047000154       -1.0009460125
 H          1.3486596438       -2.9434273945       -0.0167579065
