72
 energy: -99.289868295266 gnorm: 0.008534264691 xtb: 6.6.1 (8d0f1dd)
N           -1.89919743245593        2.85998642113889        2.08510338140574
C           -1.91160333023413        2.03129227492592        1.15022589192390
C           -3.05078527630188        1.83929677624109        0.18831362631246
C           -3.58568381837026        0.42114195744288        0.31497602611668
C           -4.48128123425328       -0.07016062585449       -0.63714138990945
C           -5.00974770878055       -1.34641197037897       -0.54379639340064
O           -5.88208656463684       -1.89419363894533       -1.41697200042972
C           -6.39304429030964       -1.10482962185711       -2.46487787095095
C           -4.63105779880784       -2.18271977748691        0.54008940077852
O           -5.18999263551134       -3.41070699379929        0.54935131813695
C           -4.93672428081249       -4.26865292010825        1.63710853951337
C           -3.74585076124412       -1.68777491904699        1.48390464699180
C           -3.23317016603606       -0.40134156628683        1.37293148826999
C           -2.44912266575439        2.05760154507247       -1.22560996110556
C           -1.55522002467578        0.90708018743237       -1.72175789816774
C           -0.25027820801783        0.84612615927169       -1.02850485338263
N            0.35569794355858       -0.26870191678149       -0.62382399162561
C            1.68715753356502       -0.19564774759440       -0.06991470662394
C            2.77596852872498       -0.35653186443070       -1.14931329367186
C            4.12429313187220       -0.06964559599165       -0.57956107632759
C            6.73415879267155        2.91365398634944       -0.74538458566973
C            6.77375338100528        1.74812611647029       -0.42691866609437
C            7.17560246474590        0.48019668741083        0.03532646306626
O            8.39567987035778        0.36752099928148        0.62083919373524
C            9.21859651612341        1.50288535016747        0.72816485034568
C            6.48913649813873       -0.71832607841874       -0.10653693720587
O            7.23443158412806       -1.78955899278165        0.27871857784393
C            6.64195929193697       -3.05620055405867        0.42559444792906
C            5.15818351192495       -0.91997885184297       -0.62125555066115
C           -0.26306421245789       -1.56479001713982       -0.76245687732306
C           -4.23135777933091        2.82709022485934        0.42107649793240
C           -4.87164184628855        2.61465245175499        1.79090092105149
C           -3.83241770842675        4.29151005119006        0.26007039687547
H           -4.77978910597917        0.56227509783006       -1.45660498863256
H           -6.90670126126933       -0.21671506505914       -2.08452735333627
H           -7.10832537824674       -1.73853951760145       -2.98540393877643
H           -5.60552305122347       -0.80244345101251       -3.16316920529560
H           -5.25690414083244       -3.82176463914669        2.58301177760518
H           -5.52325351932573       -5.16484157636289        1.44478670932946
H           -3.87704389438143       -4.53661964355849        1.69973801944117
H           -3.45561820834522       -2.29248992347896        2.32772843237159
H           -2.57206265266250       -0.04101993728242        2.14593427762747
H           -3.26532331551966        2.18388102199905       -1.93615555470585
H           -1.87052052289696        2.98205018813718       -1.22169019459145
H           -2.09490828002895       -0.03505655811368       -1.64039693223566
H           -1.36297717835032        1.09095080431105       -2.78710547928224
H           -1.05417570222860        1.37917185954349        0.89582343229102
H            0.32074334298028        1.75934055460214       -0.95304797703496
H            1.80183584148957       -0.97366507408393        0.68800136323677
H            1.81819694636557        0.77477245545531        0.41575895280750
H            2.56591622170151        0.35985174530396       -1.94963263619694
H            2.74151147472645       -1.36099312488260       -1.57253659693758
H            6.56692568110684        3.89777721022084       -1.07119181570517
H            4.25021478450451        0.90721976239158       -0.13264377588921
H            8.74582312092554        2.28481150824916        1.33038316672281
H            9.46514102567210        1.91531523283998       -0.25443277283646
H           10.12572388948936        1.15788358186330        1.22031641388771
H            7.37082859402011       -3.65335538403338        0.97172669892166
H            5.71002122247586       -3.00553273408422        0.99678554304304
H            6.45405240549114       -3.53128305939244       -0.54309028312427
H            4.98927111409950       -1.89988418319530       -1.05067044319306
H           -0.46832193033837       -1.79202727332718       -1.81020762237660
H           -1.20416980498511       -1.60156189833152       -0.20601136730540
H            0.40342146708992       -2.32705132117402       -0.36809034007836
H           -4.98402399358909        2.59440056680183       -0.34113552279950
H           -4.16464955889325        2.86569735538625        2.57505811036295
H           -5.19147834911486        1.58338901202011        1.91933525997417
H           -5.74187908579311        3.25790246343098        1.89061360154898
H           -3.05110094170477        4.54845836099674        0.96844223012110
H           -3.49132511107268        4.51154000264977       -0.74806817536061
H           -4.69567839101990        4.91980246590658        0.46315614686377
H           -1.05864946273854        2.92050510064250        2.65160806684207
