  72
        -99.38419665
 N         -2.2574477945        2.7297622947        2.7758468521
 C         -1.7617703948        2.3084696222        1.6114876034
 C         -2.8333099196        2.1896219287        0.5844807105
 C         -3.3575825858        0.7517182973        0.4980938314
 C         -4.3458085506        0.4602129175       -0.3958729218
 C         -4.7034201345       -0.9501061455       -0.7188898108
 O         -3.8661842127       -1.3073287990       -1.8570168536
 C         -4.3961866776       -2.3218482435       -2.6760821580
 C         -4.3781315703       -1.8776730280        0.4217814619
 O         -5.0617351833       -3.0399839769        0.3582566854
 C         -4.8313065358       -4.0290762942        1.3375817154
 C         -3.4177481347       -1.5385864561        1.3322752681
 C         -2.8495117584       -0.2563128350        1.3334885791
 C         -2.3793082845        2.6549577979       -0.8160339014
 C         -1.6147963367        1.5916314576       -1.6247862346
 C         -0.3206012874        1.2334427468       -1.0132185362
 N          0.1402334911        0.0031407104       -0.8147792542
 C          1.4967207572       -0.1850425529       -0.3591240333
 C          2.4663290015       -0.4702189643       -1.5249231110
 C          3.8875866829       -0.3354403454       -1.0552659251
 C          4.5307549653        0.8887111689       -1.1155310495
 C          5.8321679263        1.0313324254       -0.6578564199
 C          6.5138669872       -0.0508458249       -0.1237871337
 O          7.7786411366       -0.0280487540        0.3475284075
 C          8.5111508379        1.1725429928        0.2748672915
 C          5.8605725043       -1.3096907597       -0.0516886860
 O          6.5977322148       -2.3087708248        0.4820359986
 C          6.0477055522       -3.6014156222        0.5561017149
 C          4.5606000742       -1.4291649805       -0.5147854081
 C         -0.5629760860       -1.1731465865       -1.2631795327
 C         -3.9472672512        3.0877512645        1.2147881623
 C         -3.6862280526        2.9202190327        2.7206558760
 C         -3.8487228586        4.5618766447        0.8340059986
 H         -4.7892821619        1.2181815053       -1.0195413938
 H         -4.6059240329       -3.2319021229       -2.1060150560
 H         -3.6399602121       -2.5310941315       -3.4311448261
 H         -5.3175631559       -1.9878539601       -3.1671292549
 H         -5.0337830638       -3.6451778115        2.3412876402
 H         -5.5230186242       -4.8380022196        1.1106973059
 H         -3.8041727288       -4.4027929376        1.2903733547
 H         -3.0965921803       -2.2419422705        2.0847427778
 H         -2.0570003376       -0.0380983151        2.0317232979
 H         -3.2628646254        2.9236607597       -1.3924019549
 H         -1.7588326038        3.5457208843       -0.7120189527
 H         -2.2474933173        0.7190360749       -1.7772150420
 H         -1.4191683770        2.0306779431       -2.6116293580
 H         -0.7216618202        2.0849888550        1.4840387968
 H          0.3316821758        2.0413663085       -0.7174713817
 H          1.5257570148       -1.0141419036        0.3524645980
 H          1.8307209236        0.7187068159        0.1554555643
 H          2.2731829903        0.2537974627       -2.3188124569
 H          2.2873974828       -1.4712167478       -1.9178282783
 H          4.0246571204        1.7449493167       -1.5357929684
 H          6.3091180187        1.9951294524       -0.7280917354
 H          8.0464446386        1.9635813748        0.8719911924
 H          8.6219186332        1.5128952160       -0.7592700015
 H          9.4922908346        0.9414318008        0.6851740115
 H          6.8257930293       -4.2252072447        0.9919013961
 H          5.1626407274       -3.6259137455        1.2004545540
 H          5.7893260432       -3.9858776543       -0.4356189972
 H          4.0579517934       -2.3827029950       -0.4730001558
 H         -0.4683942286       -1.2987467403       -2.3446662931
 H         -1.6235901879       -1.1135688347       -1.0206166887
 H         -0.1409194939       -2.0474488873       -0.7727835714
 H         -4.9339181312        2.7111764707        0.9461169623
 H         -4.2024642364        2.0388743281        3.1196222226
 H         -5.7463443312       -1.0610281505       -1.0306770283
 H         -3.9828082734        3.7952228663        3.3002135710
 H         -2.8690993448        4.9635070526        1.0817810958
 H         -4.0305644531        4.7133485913       -0.2250548237
 H         -4.5997408102        5.1270234450        1.3807485576
 H         -1.7366551073        2.7812488971        3.6357401050
