25
 energy: -42.045639751286 gnorm: 0.002461658433 xtb: 6.6.1 (8d0f1dd)
C            3.29451630086486        1.17008746155048        0.02004556968589
N            2.34357636652093        0.08793609534417        0.01344748337895
C            2.66966834573129       -1.19850331145610        0.01675354178335
N            1.56503714165869       -1.95043316661247        0.03373492242913
C            0.43900099599943       -1.11010032793905        0.04048785772347
C            0.98268054772455        0.20535532427270        0.02932715383008
C            0.23529466942279        1.47070109369902        0.00320514332409
O            0.79970862384601        2.56572991870655       -0.08649854828643
N           -1.07608488655333        1.29905707654317        0.08224513428742
C           -2.02214899665612        2.32152628890208        0.08888835455877
C           -4.02249801430201       -1.08813812802118       -0.56363956337360
O           -4.37254457772681       -0.06010886617308       -0.26951852410704
N           -0.79601836048404       -1.44473557720062        0.04369649448734
C           -1.32758529650463       -2.74863896656251        0.05249026868948
H            3.72244259581270        1.28734334935175        1.01705485482828
H            4.09590624740275        0.96773738356183       -0.68873044600876
H            2.78052344933986        2.09520616903972       -0.24661051768515
H            3.67540678197111       -1.57585902645993        0.00777369335462
H           -1.56837744038891        3.31427111747868        0.21519943405452
H           -2.58618814017533        2.30853638774790       -0.85197383382560
H           -2.73551873182597        2.13927106212347        0.89922529485272
H           -0.96039830315935       -3.34550899320999        0.89530343176541
H           -1.10396845886095       -3.27932287835534       -0.88082271754407
H           -2.41393402088216       -2.65370265969427        0.12727391597641
H            1.54193467529018       -2.95946828503287        0.03281321972011
