72
 energy: -99.494469774236 xtb: 6.6.1 (8d0f1dd)
N           -2.32072501671540        3.13691220012898        2.62718735459773
C           -2.14793240693237        2.16259050151613        1.87444770681868
C           -2.96142287528147        1.94243326342169        0.66254571648602
C           -3.55059778905274        0.60804789525423        0.59674642433558
C           -4.21823400318576        0.14706724084956       -0.51006444050522
C           -4.76463553143534       -1.11444483741557       -0.52687922750227
O           -5.50623571453372       -1.69365726557560       -1.50240039274480
C           -5.69854695977069       -0.87113823599396       -2.57877176456034
C           -4.66499909508800       -1.93820592665674        0.57776766408974
O           -5.29258952574848       -3.13215534548051        0.40451738641878
C           -5.19506776498517       -3.99395740888655        1.48089880661581
C           -3.99216156068609       -1.45760181929199        1.66806822214827
C           -3.42068805240228       -0.20415679967511        1.67954495892297
C           -1.79466678828756        2.05236335592468       -0.11822597378649
C           -1.05550988325392        1.19499021687326       -1.01053678897076
C            0.35121691682479        1.11181437207146       -0.59563455347246
N            0.86792230702221       -0.04669612090722       -0.08399300046880
C            2.27354553705867       -0.06816847837930        0.02125981791610
C            3.01969164290806       -0.46750028807209       -1.24846311519316
C            4.46926652437042       -0.40711177099541       -0.98348838358559
C            5.16469544270005        0.76474882364479       -1.18787307743419
C            6.48775524747636        0.86200430129198       -0.76722356713480
C            7.13800600850757       -0.20341766648166       -0.16652015626449
O            8.45677300271807       -0.21509848866133        0.21192944402827
C            9.23866954862808        0.92562454724311       -0.05256010348567
C            6.42569547545541       -1.40557144635303        0.05206085874977
O            7.14630455807448       -2.41033040429065        0.63672065243440
C            6.50638562913018       -3.63876727442979        0.84177277069805
C            5.10898450002380       -1.48970257712536       -0.37733578921982
C            0.14937583695223       -1.29316467731347       -0.13094036584942
C           -3.88731435060602        3.06513702068585        0.32984884887529
C           -4.86953347828417        2.94499574379429        1.43318514347997
C           -3.28243258756200        4.44697591997149        0.36354656434984
H           -4.20934677141398        0.79711524569735       -1.34825506393705
H           -6.11083204519442        0.07556088400466       -2.23354711837306
H           -6.45211671673362       -1.37600017290567       -3.23436601116127
H           -4.75695921386298       -0.53783601739792       -3.02801803680153
H           -5.60576728495077       -3.47138073763208        2.32660971690111
H           -5.77142596354973       -4.88025213536953        1.20666747220981
H           -4.16080398529773       -4.23806846019989        1.73795905719669
H           -3.74597165300699       -2.08422035220977        2.47343228469049
H           -2.74348180909378        0.15550268880101        2.43265178922944
H           -1.57999229344194        3.02958442098336       -0.01295738088128
H           -1.12294476813040        1.81379330982426        0.60052279773776
H           -1.53568603914352        0.23854942150990       -0.90608890292101
H           -1.24603615052655        1.88210086720568       -1.78143650397872
H           -1.22899148414256        1.56903661151186        1.87282642958713
H            0.96098608128349        1.99345388522063       -0.58036719414058
H            2.53010120760301       -0.75921318476704        0.82837200816500
H            2.56350614766288        0.95142801479190        0.25143053299784
H            2.70251308572142        0.21319345152294       -2.03718862175865
H            2.72632751152610       -1.47678548766869       -1.49764903502500
H            4.66808466516861        1.60880206019388       -1.66765061462804
H            7.01196910518698        1.78527407073978       -0.95908135650680
H            8.83096094499624        1.80537793784442        0.43929118845024
H            9.25548724418448        1.16679126017632       -1.12594062674917
H           10.24087145121176        0.69928569047163        0.31771153341085
H            7.22907239527673       -4.30135180059467        1.29927355853778
H            5.62949482776203       -3.53787626570813        1.47567928876315
H            6.11946360050157       -4.08834259258898       -0.07937081507682
H            4.54836231621261       -2.39857168742414       -0.23300559669952
H           -0.11373708258874       -1.61356302762753       -1.15354685672608
H           -0.73207924680499       -1.22826492021585        0.51887797861553
H            0.75963209429748       -2.06630290779530        0.31862996764990
H           -4.33568471784047        2.84645472814896       -0.61646885640255
H           -4.21431027076481        3.03015531253162        2.26763358000784
H           -5.31238477602158        1.97069897474488        1.33218363318040
H           -5.58523935208870        3.71930962817906        1.42071652041744
H           -2.76403399207503        4.67298801319276        1.27331593503747
H           -2.59897680505955        4.55259909997842       -0.44103506657872
H           -4.06552947140864        5.17594520976689        0.31421077502270
H           -1.65997359901068        3.14343575316460        3.36046727418238
