  72
        -99.27815346
 N         -1.8567492062        2.6671527391        2.5172410680
 C         -1.7887094049        2.0429041258        1.4350011603
 C         -2.8959585711        1.9925168504        0.4150660435
 C         -3.4489388275        0.5803813593        0.3283097985
 C         -4.3523895191        0.2398891806       -0.6768153213
 C         -4.9191600769       -1.0199361881       -0.7067148022
 O         -5.8855596009       -1.3683953046       -1.6979867168
 C         -7.2710046693       -0.8920131765       -1.3399234563
 C         -4.6198298451       -2.0001973915        0.2515056369
 O         -5.2528965753       -3.1830814519        0.1144121076
 C         -5.0488829549       -4.1831847563        1.0906166165
 C         -3.7030943251       -1.6587183714        1.2427453589
 C         -3.1405787221       -0.3909111981        1.2752552623
 C         -2.2549299269        2.4064689834       -0.9345447339
 C         -1.3252195747        1.3506541674       -1.5592334996
 C         -0.0162974028        1.2306625025       -0.8747608478
 N          0.6037522761        0.0803634024       -0.5864553839
 C          1.9959907454        0.0781986381       -0.2072297307
 C          2.9141380635       -0.2582731483       -1.3986623488
 C          4.3540816018       -0.1780444076       -0.9769830192
 C          5.0550802678        1.0109253697       -1.0781639627
 C          6.3772046076        1.0922303734       -0.6672423022
 C          7.0221181340       -0.0161809368       -0.1402638329
 O          8.3017365051       -0.0529073230        0.2845695801
 C          9.0944157133        1.1052833290        0.1648558410
 C          6.3082583061       -1.2387891129       -0.0244626541
 O          7.0106993501       -2.2673545326        0.4989296289
 C          6.3933099973       -3.5250347121        0.6242231676
 C          4.9888839502       -1.2969269917       -0.4413031392
 C         -0.0295862340       -1.1987334988       -0.7891589829
 C         -4.0887459353        2.9417000584        0.7453564532
 C         -4.8094695018        2.5165828537        2.0230023918
 C         -3.6775876805        4.4073929511        0.8536677230
 H         -4.6446438040        0.9591401858       -1.4262136210
 H         -7.5244329444       -1.2952919693       -0.3691369047
 H         -7.9196549775       -1.2295196445       -2.1381837377
 H         -5.6795882799       -0.9099189426       -2.5321315373
 H         -5.3499538066       -3.8377691557        2.0829834184
 H         -5.6820831146       -5.0151771535        0.7895708211
 H         -4.0058178224       -4.5104867835        1.1134989041
 H         -3.4397800600       -2.3698994438        2.0079371967
 H         -2.4663143453       -0.1518794511        2.0825534736
 H         -3.0495099380        2.6274819333       -1.6471834883
 H         -1.6885771725        3.3253825059       -0.7817651731
 H         -1.8372744900        0.3908684904       -1.6093109854
 H         -1.1301381553        1.6768590158       -2.5900286617
 H         -0.8889944610        1.5009423783        1.0894754765
 H          0.5580340296        2.1325239129       -0.7324595618
 H          2.1508121402       -0.6547964680        0.5892257574
 H          2.2653549636        1.0631287441        0.1789529265
 H          2.7199067714        0.4554404749       -2.2011841022
 H          2.6845150251       -1.2603498173       -1.7635181847
 H          4.5783302680        1.8863436301       -1.4925619619
 H          6.8993192845        2.0295929626       -0.7667899733
 H          8.6973015363        1.9278682358        0.7677596153
 H          9.1812731125        1.4251501913       -0.8779977630
 H         10.0773073285        0.8262124890        0.5395791084
 H          7.1514031264       -4.1819792115        1.0462229748
 H          5.5333456598       -3.4854481435        1.3010562489
 H          6.0766819941       -3.9163727958       -0.3478907311
 H          4.4404755970       -2.2231411221       -0.3673526203
 H         -0.1489415977       -1.4232336592       -1.8524679816
 H         -1.0126056228       -1.2158291711       -0.3128054861
 H          0.5843408555       -1.9753600454       -0.3395031256
 H         -4.7977690920        2.8504596143       -0.0857557750
 H         -4.1418439144        2.6069518425        2.8731920723
 H         -5.1635019196        1.4907212621        1.9565328128
 H         -5.6684535004        3.1618280417        2.1853462206
 H         -2.9571318154        4.5377998536        1.6546071471
 H         -3.2552322190        4.7815200146       -0.0749655631
 H         -4.5554467655        5.0052008110        1.0839764906
 H         -1.0330488728        2.6570656537        3.1114438132
