  25
        -42.23688309
 C          3.1469359317        0.8327533128       -0.0200184501
 N          2.1429149196       -0.1899584325        0.0048370567
 C          2.3280357918       -1.5168172355        0.0118141542
 N          1.1222490557       -2.1474734743        0.0110264116
 C          0.1491523213       -1.1924812759        0.0011738498
 C          0.7896159351        0.0436074536       -0.0029344789
 C          0.0234952051        1.2474822567        0.0030801791
 O         -1.3525995902        1.0256403152       -0.0143924695
 N          0.5297692814        2.4101771334        0.0236934051
 C         -0.1905388806        3.6303186915        0.0374135351
 C         -1.9907267484       -0.1540711777       -0.0200760535
 O         -3.1816548270       -0.2144600852       -0.0361134979
 N         -1.2007621014       -1.3225948967       -0.0042364232
 C         -1.8503502592       -2.6170115450        0.0052384362
 H          2.9195336104        1.5819949989        0.7380600657
 H          4.1259682574        0.3973173817        0.1640478204
 H          3.1464636739        1.3332157897       -0.9899077284
 H          3.2759946996       -2.0133512112        0.0196444135
 H          0.5187438002        4.4285548540       -0.1838307523
 H         -1.0079302341        3.6443005743       -0.6916300192
 H         -0.6240197606        3.8072521973        1.0261107844
 H         -1.5839922692       -3.1698345694        0.9070215693
 H         -1.5744524058       -3.1885705078       -0.8816952370
 H         -2.9262773844       -2.4435137796       -0.0027246343
 H          0.9886575108       -3.1475638983        0.0187997291
