25
 energy: -42.158862681468 gnorm: 0.008413841927 xtb: 6.6.1 (8d0f1dd)
C            2.88151122085046        0.74370292180937       -0.39192246942042
N            1.84025949036271       -0.21495394766918       -0.07587836206271
C            2.13656544371327       -1.40163081731741        0.40149804149856
N            1.18970278565299       -2.28767217539785        0.82279167786922
C           -0.18641257358500       -2.11014648373468        0.51998231465499
C            0.52246619552363        0.16305304650797       -0.28289659884442
C           -0.04694962489431        1.45256522591515       -0.15749264914490
O            0.42993859526475        2.55801935682176       -0.23634530195598
N           -1.45271893524927        1.22303434284748        0.07698566089235
C           -2.38213044274913        2.32062049749253        0.23605157988040
C           -1.78052890194160       -0.05314674171603        0.20930162306922
O           -2.77807410221244       -0.65096380686399        0.45683809028093
N           -0.49370681692373       -0.82598893203638       -0.08285342347556
C           -0.61453323163289       -2.03548056348304       -0.89684324760165
H            3.51716610173174        0.90678881027911        0.47971848130499
H            3.49466499577691        0.37971106917346       -1.21837680563121
H            2.41846790725407        1.68971414573990       -0.67202541887835
H            3.16969798659019       -1.67671761176881        0.52771918314205
H           -1.79579304201567        3.21067355473605        0.46147953211563
H           -2.93775272256494        2.48108749914490       -0.68836171718123
H           -3.07764728558769        2.10197141508903        1.04373615448048
H           -0.87206182404491       -2.46931733183641        1.27626970578762
H            0.12189224731276       -2.16312148530253       -1.67966609483271
H           -1.63217727925220       -2.30238984891639       -1.16138190765997
H            1.48858532671986       -3.22117359791294        1.06284356961480
