  72
        -99.24688503
 N         -1.7221564839        2.6379259044        2.4857262274
 C         -1.7135062358        2.0866306587        1.3666648025
 C         -2.8912058509        2.0045463469        0.4352333024
 C         -3.4326560969        0.5820855916        0.4050961018
 C         -4.4282713328        0.2394952989       -0.5125024824
 C         -4.9676403133       -1.0359400012       -0.5538675132
 O         -5.9391531730       -1.4473978882       -1.3912813779
 C         -6.5577241436       -0.5188126204       -2.2510372303
 C         -4.4875491975       -2.0290499677        0.3444298294
 O         -5.0599397952       -3.2416633326        0.2241185854
 C         -4.6929835481       -4.2683530312        1.1161196116
 C         -3.4993303155       -1.6822667455        1.2520985744
 C         -2.9822476922       -0.3928304862        1.2827470827
 C         -2.3527037929        2.3903829784       -0.9668521461
 C         -1.4549059478        1.3186541231       -1.6117921020
 C         -0.1190637186        1.2062129501       -0.9847516852
 N          0.4813047506        0.0762004871       -0.6674472802
 C          1.8646880470        0.0749934042       -0.2537532403
 C          2.7834614082       -0.3451618578       -1.4134421066
 C          4.2123749440       -0.2487183167       -0.9777847608
 C          4.9230001180        0.9149335047       -1.0436457375
 C          6.2224206008        1.0817191354       -0.6662558490
 C          6.9112341001       -0.0235681949       -0.1428833207
 O          8.1852314223       -0.0309908237        0.2689360626
 C          8.9646735315        1.1394370923        0.1743551740
 C          6.2048893331       -1.2549908825       -0.0141537910
 O          6.9279424881       -2.2570801554        0.5277510046
 C          6.3475086540       -3.5281006563        0.6973066495
 C          4.8847414306       -1.3493809696       -0.4261476630
 C         -0.1613286472       -1.2095892046       -0.8024985684
 C         -4.0504155372        2.9617341407        0.8461281005
 C         -4.6726282807        2.5420250077        2.1757144598
 C         -3.6213094887        4.4244760869        0.9138527579
 H         -4.8002286453        0.9859975002       -1.1944029298
 H         -7.0204099379        0.2993590183       -1.6911304881
 H         -7.3304770342       -1.0782411299       -2.7748266913
 H         -5.8508904087       -0.1117764719       -2.9810123933
 H         -4.8980327697       -3.9898861928        2.1538828626
 H         -5.3072369282       -5.1244678141        0.8441477306
 H         -3.6361411130       -4.5331582768        1.0099590084
 H         -3.1309165506       -2.4086812353        1.9581996316
 H         -2.2377686845       -0.1526740077        2.0261254042
 H         -3.1972257047        2.5676571742       -1.6315858551
 H         -1.7931297483        3.3227591171       -0.8875059495
 H         -1.9783354029        0.3639065390       -1.6256906685
 H         -1.2906055333        1.6296039222       -2.6510084233
 H         -0.8086870009        1.6340070188        0.9140392648
 H          0.4848757861        2.1029702382       -0.9319475688
 H          1.9885556653       -0.6033549483        0.5946477581
 H          2.1547104686        1.0819959456        0.0532700828
 H          2.6256196744        0.3660377508       -2.2305215990
 H          2.5444597830       -1.3543637582       -1.7483075355
 H          2.8166149777        2.4528515004       -1.9430570558
 H          6.7132167565        2.0360131459       -0.7665406371
 H          8.5413041238        1.9541760781        0.7692729462
 H          9.0763687653        1.4648193414       -0.8641062949
 H          9.9391041892        0.8668137535        0.5758373009
 H          7.1326931749       -4.1426452470        1.1332987920
 H          5.4929920308       -3.4939158281        1.3809229979
 H          6.0360848176       -3.9604761257       -0.2583202026
 H          4.3561855250       -2.2857161753       -0.3358212308
 H         -0.3366080041       -1.4520504455       -1.8523795734
 H         -1.1178521933       -1.2187902035       -0.2740684192
 H          0.4790178953       -1.9751531623       -0.3718529372
 H         -4.8191086334        2.8716599320        0.0705467236
 H         -3.9407463540        2.6298706385        2.9722470529
 H         -5.0301796580        1.5159293945        2.1368412322
 H         -5.5141181385        3.1900853830        2.4053227658
 H         -2.8298972043        4.5548643623        1.6457092120
 H         -3.2827719007        4.7936970307       -0.0505603883
 H         -4.4689269942        5.0304155259        1.2225761843
 H         -0.8568096973        2.6633484155        3.0153097826
