25
 energy: -42.135882878154 gnorm: 0.002129473401 xtb: 6.6.1 (8d0f1dd)
C            3.42846353128501        1.60773856683257        0.00756752488142
N            2.61202106545629        0.42204913805548        0.01662682762383
C            3.02608451859666       -0.83794710887334        0.03381473068105
N            1.97499344263784       -1.67535154753155        0.05079761063887
C            0.82669149419030       -0.92442040600272        0.04414232392701
C            1.24475302408135        0.41252380141397        0.02331746293792
C            0.26630392211562        1.47717235974034       -0.00809702339861
O            0.51952085122000        2.66480303953855       -0.04754047004926
N           -1.02250642196577        0.97379664485004        0.00769480334124
C           -2.11850479713015        1.92094775516447       -0.01484829200281
C           -1.39031082848456       -0.39496844902427        0.03495366301056
O           -2.56880278357742       -0.67445936009622        0.03922020433806
N           -0.41553571730725       -1.33825201623985        0.05047577501178
C           -3.26061040766649       -3.54916203401705       -0.06759027440065
H            3.96044683000594        1.70822347381325        0.95475540529293
H            4.15580218407980        1.56344746106307       -0.80135528718711
H            2.78013961895713        2.47359629881116       -0.12785182663990
H            4.05401169641182       -1.14838152335796        0.03284207485544
H           -1.70107632046025        2.92619172827380       -0.01916780518251
H           -2.73009574879211        1.76034063191655       -0.90395588127609
H           -2.75127042659460        1.77446708878914        0.86161469225908
H           -3.05334266649497       -4.08462581775173        0.83901428651615
H           -3.07282135321151       -4.01783148954277       -1.01456982946179
H           -3.61986124503652       -2.53715377803520       -0.02638294255282
H            2.01593805179962       -2.68450591619446        0.06569386473793
