  25
        -42.10823377
 C          3.1548475780        1.0751019031        0.0506442519
 N          2.2865261876        0.0719206758        0.0135644094
 C          2.5499108445       -1.2552175239       -0.0019425026
 N          1.3868099657       -1.9609179836       -0.0123110972
 C          0.3551311177       -1.0753222167       -0.0054129298
 C          0.9004320898        0.1983574961        0.0043868250
 C          0.0764386294        1.3857019925        0.0000335712
 O          0.4778477068        2.5248744644       -0.0087632816
 N         -1.2807238588        1.0576131561        0.0039503208
 C         -2.2365143662        2.1560047839       -0.0012774261
 C         -1.8493314554       -0.2019001262        0.0163210612
 O         -3.0359332064       -0.3725119839        0.0343912577
 N         -0.9675456170       -1.3066093035        0.0037570837
 C         -1.5226887737       -2.6450853314        0.0204649760
 H          4.2064644776        0.8660660636        0.0867763550
 H          4.3996412779        3.2188427619       -1.7271024052
 H          2.7754640380        2.0797714904        0.0732591299
 H          3.5301684395       -1.6863143597        0.0012380505
 H         -1.6798834358        3.0891572961       -0.0420878212
 H         -2.8948838020        2.0669747591       -0.8651362872
 H         -2.8484602249        2.1198199771        0.8999652013
 H         -1.1863899608       -3.1866103008        0.9050181131
 H         -1.2418745227       -3.1883893191       -0.8822180188
 H         -2.6075049751       -2.5486033470        0.0537517607
 H          1.3305351013       -2.9677077425       -0.0264204685
