  25
        -42.15923442
 C          3.0716814773        1.5771330442        0.0116569429
 N          2.2799632742        0.4317241230       -0.0024474099
 C          2.4099754539       -2.3842261179        0.1905240755
 N          1.2524097974       -2.0748011476       -0.2011219637
 C          0.4575597254       -1.0417149125       -0.0286088030
 C          1.0091548069        0.2971810296       -0.0213798924
 C          0.0390326856        1.4413335819       -0.0263753586
 O          0.4154251573        2.5905897866       -0.0379824005
 N         -1.2860743199        1.0928928252       -0.0043472870
 C         -2.2813197191        2.1582252870        0.0071802505
 C         -1.8049691915       -0.1916477462        0.0137615517
 O         -2.9841224707       -0.4036157822        0.0433157388
 N         -0.8733114395       -1.2383593559       -0.0017069458
 C         -1.3841115919       -2.5943708875        0.0160733275
 H          3.7183751902        1.5430152552        0.8939619064
 H          3.7293009852        1.5456093935       -0.8632113648
 H          2.4924446548        2.5107273306        0.0112099237
 H          2.8534807988       -1.9704234559        1.0915952408
 H         -1.7660823905        3.1142559718        0.0542088570
 H         -2.8892720986        2.1023035786       -0.8958366206
 H         -2.9357272307        2.0348527602        0.8698171429
 H         -1.2185350536       -3.0540696329        0.9912060918
 H         -0.8712999015       -3.1823152431       -0.7453620335
 H         -2.4533253489       -2.5603936522       -0.1856487713
 H          2.9581868431       -3.1488225478       -0.3339198017
