25
 energy: -42.236785415482 gnorm: 0.003690695367 xtb: 6.6.1 (8d0f1dd)
C            2.68051505180362        1.36110312015236        0.24802524529311
N            1.95400992288510        0.12958313471134        0.14741018466721
C            2.45585374162644       -1.11170581774745        0.12295767543154
N            1.44376008844056       -2.01207495390536       -0.00095501019514
C            0.27092722434353       -1.31972080623592       -0.05714806136638
C            0.58788510025003        0.03113039740672        0.03601886812930
C           -0.44553760595502        1.01399511492873        0.02075112038476
O           -1.72171229095927        0.46922933361405       -0.11923060110057
N           -0.24235519998248        2.25767060396320        0.12672851788212
C           -1.23855676661262        3.26720608702109        0.12576505483470
C           -2.04870785420898       -0.82680114899922       -0.23211254933493
O           -3.18215332513415       -1.16627069122819       -0.36641902308652
N           -0.99888200267440       -1.77332630964045       -0.17878131927341
C           -1.30416727119013       -3.18519586508658       -0.27877480383004
H            2.25640256699439        1.97129073592897        1.04542889976967
H            3.72885368349818        1.15619841447534        0.45050728304912
H            2.59013078508993        1.92456391083389       -0.68213249622378
H            3.49290181377336       -1.36605787611924        0.19155322076038
H           -0.73025213826466        4.22914717794877        0.19176426416328
H           -1.84319306905708        3.23580218569292       -0.78508298725714
H           -1.91434014055542        3.15703169466564        0.97864411980197
H           -0.94255666656752       -3.71409346920747        0.60410087710809
H           -0.85808683635129       -3.61004577427018       -1.17933856138105
H           -2.38713792647161       -3.28664440642275       -0.33753323138979
H            1.55683062937128       -3.01377625088437       -0.04097506894285
