25
 energy: -42.159816312154 gnorm: 0.007844609379 xtb: 6.6.1 (8d0f1dd)
C            2.87256942087604        0.73400947749437       -0.40685226706745
N            1.84360703353137       -0.21580588335810       -0.04419878403195
C            2.12705629429406       -1.38862965115009        0.46953947029747
N            1.16583892398255       -2.26022912744136        0.88967249849628
C           -0.19744990632605       -2.10080389388425        0.52654572427477
C            0.52878720382331        0.16240091389751       -0.28326894108826
C           -0.03718631984728        1.45006879897563       -0.12999432799408
O            0.45114053878776        2.55334545683846       -0.15076518932917
N           -1.45006062723307        1.22243983930572        0.05089710118672
C           -2.38064136852865        2.31962799322490        0.20543797298485
C           -1.78443505329014       -0.05600726900020        0.14878971481595
O           -2.79192005755315       -0.65258452593476        0.35425486773133
N           -0.49160274995827       -0.82747550062649       -0.10624851316168
C           -0.57629674299692       -2.04858349699018       -0.90678324922754
H            3.77598107813940        0.54751781870815        0.16848133344171
H            3.09714003326628        0.65658211223019       -1.47230571925902
H            2.50731884540473        1.74331049049097       -0.21041191374985
H            3.15513166723054       -1.66634090666704        0.62717236467142
H           -1.78695554942571        3.22706106709402        0.30891876869367
H           -3.01977368883876        2.39872344878250       -0.67374252410589
H           -2.99922453196546        2.16563808816766        1.08779303287110
H           -0.90992946942023       -2.45901824406360        1.25562226828675
H            0.18694990595093       -2.17883654066545       -1.66300545324804
H           -1.58170978718747       -2.32827991822179       -1.20138735594022
H            1.45609642138366       -3.17989200560709        1.18701073835359
