25
 energy: 36.808646877065 xtb: 6.6.1 (8d0f1dd)
C            3.05376085218901        1.22197040684185        0.09812558766442
N            2.21196466634494        0.06356339861265        0.00038551603140
C            2.61908798161964       -1.26338468804032        0.17721124457866
N            1.45533714588496       -2.03700578760413        0.01419280650681
C            0.37896967230625       -1.21043597561247       -0.02332306252766
C            0.81892167598929        0.09339854378099       -0.01849272090241
C           -0.04150621809224        1.22153352584873       -0.07317851825693
O            0.42134111803519        2.36406241638055       -0.16869503554584
N           -1.44213000124563        1.01307101350789       -0.01497815215396
C           -2.09211590613182        2.63704919995761        0.01208720493312
C           -1.91778134133016       -0.33678097510329       -0.02653363243890
O           -3.08452267157983       -0.65901217245587       -0.03248199799875
N           -0.95397454313707       -1.45502749202922       -0.04345354201656
C           -1.35047983023539       -2.84833194447159       -0.06371213928113
H            3.31834831907752        1.43839146886415        1.13462605706765
H            3.96745153465903        1.06006350298495       -0.44816947452082
H            2.43941917141404        2.04797279092274       -0.28792740105105
H            3.58619583673472       -1.56924996946707       -0.19678759007697
H           -1.20351684165928        3.27343786544991        0.07539226238815
H           -2.63643105304050        2.82138268636392       -0.90203621525727
H           -2.71227873094298        2.79101997183722        0.87621752552478
H           -0.95101342698183       -3.36023010745691        0.82051275302873
H           -0.92584138201780       -3.34259281206127       -0.94495732724853
H           -2.44539266355420       -2.86438572343011       -0.08044893698622
H            1.49250020354710       -3.04273611814397        0.00050970070931
