25
 energy: 18.228460515081 xtb: 6.6.1 (8d0f1dd)
C            3.08646314581454        1.22172537603507        0.10096856987398
N            2.22891440821414        0.07675039307112        0.00451725844229
C            2.60520106933174       -1.26079158729203        0.13016382111246
N            1.43558241433418       -2.01807837538289        0.00363162412710
C            0.37379467351331       -1.17609908435457       -0.02267957286140
C            0.83402308388250        0.12387849071438       -0.01363251549763
C           -0.00872667063621        1.25619553834078       -0.05246228637542
O            0.45551646809740        2.40237788500552       -0.12486398143371
N           -1.42942355807077        1.04874243073776       -0.02088671897407
C           -2.09559644478213        2.50609931632879       -0.00191947511133
C           -1.91771884936040       -0.28611238641527       -0.03487559586956
O           -3.08729600469483       -0.59743021070401       -0.05755407922601
N           -0.96654551608174       -1.40991172488449       -0.04165860848125
C           -1.38007290600971       -2.79833333090353       -0.06186529992971
H            3.41818931698657        1.40855965567605        1.12475706927068
H            3.95411206886026        1.08381580213988       -0.51347203512927
H            2.47819416418595        2.07299375483977       -0.22906661946312
H            3.58932350059092       -1.59559630323454       -0.16324945116334
H           -1.23281708745051        3.18506311682555        0.03764975923060
H           -2.68395416406763        2.67298273908681       -0.90851243534591
H           -2.74291568572349        2.63633122695908        0.85871154228509
H           -1.00037585855169       -3.32285896880536        0.82308897574029
H           -0.97546811633673       -3.30585609875179       -0.94481929905041
H           -2.47283099303280       -2.80017895248353       -0.07867546292846
H            1.45032280742251       -3.02720539508483       -0.00063320511474
