25
 energy: 11.679175270840 xtb: 6.6.1 (8d0f1dd)
C            3.10402928768403        1.22052212512035        0.10082449032282
N            2.23820895626100        0.08297159025778        0.00599710925711
C            2.59760714911142       -1.25740459467756        0.10508612793009
N            1.42848739253483       -2.00848133248736        0.00218079199193
C            0.37301944444681       -1.16084346012271       -0.02455125124068
C            0.84252144537440        0.13755229642333       -0.01376291534619
C            0.00582349125101        1.26733933515943       -0.04488335242445
O            0.45467807453811        2.41960682870469       -0.09167624956005
N           -1.42142587134226        1.04741466940422       -0.02963835449440
C           -2.10543410692121        2.44735221855963       -0.00516033286172
C           -1.91673466882954       -0.26870800011697       -0.04390431535059
O           -3.08925735326194       -0.56744168468177       -0.06478232588953
N           -0.97039717735313       -1.39144189363836       -0.04589742313774
C           -1.39654517743587       -2.77492823702078       -0.06154694601813
H            3.46173049498558        1.39064402854200        1.11896374385913
H            3.95324890065516        1.10003706850545       -0.54297393437364
H            2.49987396940905        2.08057388142446       -0.20710616746656
H            3.59048791856626       -1.60204319340799       -0.11816265009555
H           -1.27497456112550        3.15763500233451        0.02701933009703
H           -2.70769559249432        2.59492303248303       -0.90882981331652
H           -2.76500716971137        2.56348018204616        0.85346273760579
H           -1.02932218603269       -3.30291492995382        0.82625694146734
H           -1.00346159203323       -3.29114933616983       -0.94444656694790
H           -2.48756196581460       -2.76111106716781       -0.07883879334580
H            1.43330604034818       -3.01867365554964        0.00035070739671
