25
 energy: 55.303927992860 xtb: 6.6.1 (8d0f1dd)
C            2.96960512250655        1.18310551373503        0.06885766191018
N            2.20612740064998       -0.03657436163842        0.02566786494524
C            2.66984225575565       -1.28052588368974       -0.02112733720349
N            1.62364704246610       -2.14668927645642       -0.02348202139116
C            0.46090740706982       -1.40692958044074       -0.01170299207567
C            0.83540999927160       -0.07159324322352        0.02457764664641
C           -0.20651003213948        1.00161150682944       -0.04694251544343
O            0.10529012033974        2.18526204283967       -0.06992668339594
N           -1.44945998029849        0.51121182501062       -0.08018786161507
C           -2.33919391062172        3.90438542199637        0.03587743335198
C           -1.85078200967235       -0.73502148647060       -0.05172591131079
O           -2.98543409827930       -1.14173374913946       -0.04773125801764
N           -0.79655534489519       -1.82175874707433       -0.03934156072391
C           -1.18981625102951       -3.20826406826902       -0.06864618316980
H            3.17352430638325        1.46382881143612        1.11167973443470
H            3.90178121417594        1.06800638341961       -0.50209342417371
H            2.35913363222317        1.96243002299180       -0.39420020582143
H            3.69799449679488       -1.57863791862302        0.08768900044034
H           -1.30108909241376        4.13374646636686        0.10108953663007
H           -2.80313741108591        3.89135731361413       -0.92293958220767
H           -2.92287904032853        3.81082317786682        0.92031586227752
H           -0.84570706867463       -3.73804390525900        0.82408354147414
H           -0.81017782842465       -3.71305596963331       -0.96111481498015
H           -2.28406914517544       -3.19124594246959       -0.09146494040465
H            1.70492480385129       -3.15025395081515        0.00481833021439
