25
 energy: 57.626960013814 xtb: 6.6.1 (8d0f1dd)
C            3.47786565767164        0.91066853751201        0.19046750810541
N            2.46056121609475       -0.09195754196498        0.02259617100597
C            2.76531935887296       -1.37458716539688       -0.09128952222550
N            1.62865700633386       -2.10420294502538       -0.12220526850963
C            0.56843839476884       -1.22996980122872       -0.03386772367774
C            1.10340660487500        0.04595222859484        0.04675144159154
C            0.19916131495390        1.23504827959670        0.13890331698031
O            0.68250840016441        2.35159809060094        0.27506730461232
N           -1.11855118254593        0.95292138987971        0.08098762645366
C           -3.33264892153763        3.13480914745906       -0.31695405423524
C           -1.66756476785956       -0.22965886991637        0.12554862367415
O           -2.81900076897153       -0.54706167225350        0.26241482058089
N           -0.72528198984510       -1.46687443310155       -0.00953073733630
C           -1.22340888609817       -2.81006939911577        0.02460555999339
H            3.99563255250719        0.69228306911745        1.12005275524953
H            4.19416511828628        0.83455590696607       -0.62994651444521
H            3.03323301754050        1.89747367263263        0.22593362382140
H            3.75309589558474       -1.76367313901902       -0.17356310867138
H           -2.56772606149330        3.85251372227538       -0.24651250067697
H           -3.73257262772192        2.89834042736338       -1.26801815207016
H           -3.87850569783868        2.85355081460362        0.54129886249008
H           -0.75180793800488       -3.35750401658560        0.84212659154568
H           -1.01219174213544       -3.31532304449100       -0.91976980592297
H           -2.29331418597303       -2.79726038604144        0.19963254834906
H            1.61661768275932       -3.10410792319844       -0.19523595757418
