25
 energy: 54.542500334303 xtb: 6.6.1 (8d0f1dd)
C            3.40600473183427        1.03285246887322        0.15107119467805
N            2.38766005773224        0.02781781024564       -0.00581197636819
C            2.66249739938368       -1.29634190609110       -0.07557685294192
N            1.49163882004401       -1.99939312615058       -0.12968683856488
C            0.47003260993957       -1.09983288815477       -0.07415917093409
C            0.99487225898090        0.17427485645815        0.00118571947524
C            0.08711261947234        1.35313540900998        0.07413635585294
O            0.52585473891018        2.48640931437464        0.22138442551526
N           -1.30413448666733        1.08316162212863       -0.01496586764546
C           -2.82161203497752        2.61760433294496       -0.26626075698585
C           -1.80261592440296       -0.16203492450440        0.06280270111250
O           -2.96578485576994       -0.49182349237564        0.16647367210087
N           -0.84571108516761       -1.31569844904598       -0.01376199226410
C           -1.29702406457276       -2.68215134189713        0.00488520892586
H            3.95479901041029        0.90758771553937        1.09702586957970
H            4.13212034990639        0.92968998843927       -0.65973426722663
H            2.96528564358993        2.02157803109457        0.13157223311568
H            3.61954294027317       -1.75247322776170       -0.18221789929505
H           -2.18774694527503        3.46967536078401       -0.21831973618359
H           -3.32831497305081        2.48522711244388       -1.19735831999177
H           -3.43462004990307        2.47725773099978        0.58564691381552
H           -0.85635631090919       -3.22476217802969        0.84661829767844
H           -0.96584529837856       -3.16392645243402       -0.91706879653297
H           -2.38583821280868       -2.71686517948123        0.07050680880631
H            1.43899818214847       -2.99749888176964       -0.21417477671254
