25
 energy: -3.541289292249 xtb: 6.6.1 (8d0f1dd)
C            3.28251420891676        1.14997879162243        0.10293669121298
N            2.32005314800324        0.09832099681093        0.03647154101520
C            2.61320617761722       -1.25443645232341        0.01996475305186
N            1.42355384564889       -1.94837786239659       -0.02487752207518
C            0.41253962988365       -1.05794906379254        0.00134569809781
C            0.92029734577719        0.23342968007920        0.04714509792354
C            0.09235252978737        1.38764714006012        0.02920736712634
O            0.48169731944935        2.55944001147760        0.04690817512175
N           -1.32836285479964        1.08525799905770       -0.01867605951542
C           -2.31485375130579        2.20661544894566       -0.09022528548096
C           -1.83485702242200       -0.18499173701238       -0.01141915510937
O           -3.02621641519192       -0.41839912696387       -0.02641820976476
N           -0.93084768141303       -1.28413585504824        0.00234890247748
C           -1.43280244006106       -2.64444880343635       -0.04481503273160
H            3.78716713751130        1.16670312100051        1.07641785363851
H            4.04124895798654        1.02326056309342       -0.67459368561499
H            2.75443015423901        2.08645379632882       -0.04002759498061
H            3.58887043393507       -1.68522266154456        0.01417062910820
H           -1.77585481134286        3.15423705958859       -0.06893681925511
H           -2.92106023857470        2.17279415257237       -0.99482735541954
H           -2.98745706805415        2.17178207776255        0.76746453702442
H           -1.10365864729454       -3.21215734890559        0.83032067761451
H           -1.10034955118702       -3.16677317637809       -0.94844908302653
H           -2.51925611896538       -2.58900389440608       -0.04575742187486
H            1.35610864241882       -2.95346834658498       -0.06145679935771
