25
 energy: 54.427611128923 xtb: 6.6.1 (8d0f1dd)
C            3.46920201919505        0.93225326236066        0.13769231433201
N            2.54735147970164       -0.16982012774651        0.04597520442634
C            2.85720619783086       -1.45302310316325       -0.06880060840750
N            1.71564753811461       -2.18628158091559       -0.09270284558916
C            0.64837672252563       -1.32406521810314        0.01354299004702
C            1.18797152545614       -0.04479467080126        0.09852468781184
C            0.29643261760033        1.14119515654487        0.15136856040689
O            0.74296168894206        2.27920522680856        0.15852790009862
N           -1.00074528960761        0.81844441227309        0.18428468579009
C           -3.70061024437733        3.62565456137438       -0.29797700630697
C           -1.57892866343852       -0.34207642396864        0.12608853271279
O           -2.74789041546078       -0.61888152194881        0.12642449401527
N           -0.64597837265183       -1.58255226722713        0.03092625965997
C           -1.20999089292868       -2.90446116038271       -0.01664803484650
H            3.98666347451020        0.91763281321981        1.09987945275289
H            4.20350138574084        0.87879296266563       -0.66475059798295
H            2.89827838533441        1.85902016982614        0.05594775836991
H            3.84565433838247       -1.85462484473887       -0.13152692759940
H           -2.84931066377408        4.26510766674891       -0.24078052632521
H           -4.07157642550044        3.31200751231074       -1.25016962865063
H           -4.19522321740500        3.31370990021407        0.59503455741882
H           -0.87041849878369       -3.50999618960045        0.82865718639336
H           -0.97085082414975       -3.40868707287748       -0.95677187467387
H           -2.29189046123127       -2.77746426094822        0.04795633511803
H            1.66770439121956       -3.18833274284468       -0.17590323225150
