25
 energy: 54.289544471741 xtb: 6.6.1 (8d0f1dd)
C            3.46708754776920        0.93360599348384        0.13483171505002
N            2.54249823039692       -0.16660822516971        0.04566595722114
C            2.84969824161365       -1.45066894425900       -0.06518939090919
N            1.70816190995439       -2.18227925922831       -0.08887254408957
C            0.64436547717153       -1.31776232519132        0.01231474864050
C            1.18455652112072       -0.04118042290706        0.09707183477373
C            0.28716818307441        1.14405256923543        0.15359880962167
O            0.74043360681230        2.27870456073475        0.17111678741061
N           -1.00646550969464        0.81595015204537        0.16643152919256
C           -3.70248699467099        3.64234910889102       -0.29232786967338
C           -1.56922611376984       -0.35996012097534        0.12344665698790
O           -2.74224082933243       -0.62603596431845        0.14246531919145
N           -0.65332746466125       -1.57370923228909        0.02882951233582
C           -1.21693005888605       -2.89704493061553       -0.01963121147259
H            3.98213607653682        0.91441922504390        1.09647856881887
H            4.20576914257412        0.87474492695918       -0.66409355983989
H            2.89578333159532        1.86106889925364        0.05490054521844
H            3.83614269768833       -1.85739555057339       -0.12916096812367
H           -2.82136889352203        4.24290482420639       -0.23403802512707
H           -4.06021923347058        3.30879942731784       -1.24206972502153
H           -4.17506789886925        3.29875728520458        0.60148207454291
H           -0.87436700139991       -3.49799972135666        0.82621791316764
H           -0.96994073655988       -3.39903168908191       -0.95829491557422
H           -2.29951733269250       -2.77271707230556        0.04401744525054
H            1.65957140619413       -3.18393472536030       -0.17815729539813
