25
 energy: 54.443798757109 xtb: 6.6.1 (8d0f1dd)
C            3.46329843742175        0.93555144027199        0.13205142520740
N            2.54610806101816       -0.17170320317138        0.04470032906653
C            2.85785792367355       -1.45467338267986       -0.06500963240104
N            1.71509040861802       -2.18690755672578       -0.08621287682456
C            0.64656040483216       -1.32465199634414        0.01284787308546
C            1.18914405293233       -0.04708048407925        0.10017640451791
C            0.30432690220627        1.14193520223463        0.16009551044912
O            0.76284901885009        2.27524126140109        0.16753431122903
N           -0.99809242775349        0.82804571106071        0.17777631245595
C           -3.66469732214446        3.57560308318116       -0.29865814914381
C           -1.58204781850882       -0.32827716642227        0.12011376571761
O           -2.74750678971469       -0.61211857638774        0.12625799633036
N           -0.64523969089000       -1.58519680967093        0.02869012845952
C           -1.21700415653287       -2.90403315556089       -0.02358065578291
H            3.97167594298040        0.92611020231890        1.09574513373565
H            4.21133880204087        0.87694321965112       -0.65880157214067
H            2.88074676144234        1.85691524810889        0.05110680857686
H            3.84345055939050       -1.86660042702146       -0.13031472229034
H           -2.82101548691143        4.22672697215726       -0.24525292797512
H           -4.03942932964831        3.27251944500607       -1.25283220727497
H           -4.15540870175459        3.25746992738415        0.59270854625472
H           -0.88779544934447       -3.51290770750337        0.82229194853917
H           -0.97769240351821       -3.41350995286340       -0.96136081572528
H           -2.29751970434184       -2.76550855877425        0.03990454196424
H            1.64808474653863       -3.18567298212748       -0.19062319014942
