25
 energy: 58.834663579928 xtb: 6.6.1 (8d0f1dd)
C            3.44997802166290        0.97512280967259        0.17237097104878
N            2.42064386379422       -0.01973693394010        0.00152348518579
C            2.71048595438073       -1.31510093263003       -0.07262067000337
N            1.56228352381013       -2.03934381087159       -0.12875296846413
C            0.51637314690065       -1.15506740108795       -0.06964445973452
C            1.04928688631125        0.11972459926657        0.01108063753973
C            0.13387097247070        1.30396535280886        0.09757187735696
O            0.59811929742404        2.42756156276117        0.25480299063769
N           -1.21026740872116        1.02829368241386        0.02444629990290
C           -3.07041147943880        2.85112777066317       -0.29856557073452
C           -1.73867335492853       -0.17799880888145        0.08866210386003
O           -2.89499332520564       -0.50935113917945        0.23025054300280
N           -0.78610087639238       -1.37669020402516       -0.02344196288096
C           -1.25350784498888       -2.73019824461876        0.02749785322770
H            3.98890237841852        0.78290593531639        1.10964466047283
H            4.16398904527618        0.88281876904793       -0.64782362891129
H            3.04250778613021        1.97485281302606        0.19845405411683
H            3.68333149511319       -1.71066977859520       -0.22559373979919
H           -2.36005896771083        3.62613585181924       -0.23090095122561
H           -3.51301177649851        2.66359125346544       -1.24222493571067
H           -3.64411345500149        2.61672425646826        0.55276405683557
H           -0.76065081547055       -3.23250939981746        0.86194882402820
H           -0.98863949837682       -3.23277712756393       -0.90446031789465
H           -2.33753661200772       -2.76091476172915        0.13558142536165
H            1.52243724361068       -3.03845331336208       -0.20488193981534
