25
 energy: 39.176596259096 xtb: 6.6.1 (8d0f1dd)
C            3.39000282174630        1.05102081595453        0.14510759080629
N            2.37179287116691        0.05361352649235       -0.00721244642413
C            2.64625660276019       -1.30168253341346       -0.06727127289371
N            1.45895062054171       -1.97992358116724       -0.12530476594795
C            0.45484267690113       -1.08179401048562       -0.07263694150044
C            0.95611404990513        0.20947855735475        0.00532079466014
C            0.09287702876094        1.37874140538030        0.06095755092386
O            0.50384028967724        2.52813451706351        0.20705112865748
N           -1.43164923858242        1.16330311452211       -0.06321144677138
C           -2.63598440226791        2.42981642443561       -0.22826130445351
C           -1.84422998752108       -0.15160318723787        0.04595547737078
O           -3.00706191345054       -0.49285068009398        0.13636253613754
N           -0.88414927167942       -1.27510666285239       -0.00950074767052
C           -1.32073353883463       -2.65794723681771       -0.00365012868833
H            3.93920779134548        0.94567355943134        1.09490646586870
H            4.12177205655024        0.94337025977084       -0.66278999773265
H            2.94053700861843        2.03465735929251        0.10933331776623
H            3.60594262474914       -1.76184051082424       -0.15611726249724
H           -2.11906831948317        3.38449508701702       -0.20266595863303
H           -3.22646642162767        2.39619255785071       -1.15275810095663
H           -3.33318540689455        2.41449672737877        0.59890316880799
H           -0.89079778852006       -3.21347470975413        0.83928648863034
H           -0.97524938359069       -3.14144561037423       -0.92453633031789
H           -2.40759969164326       -2.70200931516643        0.05223318918604
H            1.40448137122888       -2.98026601464643       -0.21221696654043
