25
 energy: 56.822123026433 xtb: 6.6.1 (8d0f1dd)
C            3.42299929637886        1.01338321175748        0.15712319690092
N            2.39919762647130        0.01199050821278       -0.00367566155456
C            2.67680851457902       -1.29928917230681       -0.07325005154069
N            1.51613736047471       -2.01108748452166       -0.12983901958667
C            0.48503536139024       -1.11618895680136       -0.07309883638192
C            1.01543659941504        0.15680340173433        0.00491399618530
C            0.10268686366536        1.33914077534700        0.08154051816613
O            0.55130910315138        2.46826895536834        0.23405849780030
N           -1.26592602540372        1.06321107928179       -0.00062637058682
C           -2.91372990979146        2.70000464503972       -0.27991755592948
C           -1.78056763281238       -0.16446616028851        0.07206581364228
O           -2.94102268363659       -0.49482833421356        0.19107673537828
N           -0.82432092027549       -1.33540062943213       -0.01839360606227
C           -1.28033284292022       -2.69550130687118        0.01338121906491
H            3.96945212753569        0.86468060945807        1.09993474123139
H            4.14471549342284        0.91260831394288       -0.65693889186679
H            2.99510955992121        2.00705062292786        0.15236683607893
H            3.63567477838352       -1.73871439353080       -0.20354913217905
H           -2.24849162432478        3.52083230591430       -0.22394549992143
H           -3.39377549745075        2.54394977261280       -1.21575458393492
H           -3.50978996054248        2.51739566582494        0.57094950710221
H           -0.82371658916276       -3.22574119273745        0.85270447827008
H           -0.97406367711956       -3.18696837058947       -0.91170706279476
H           -2.36829816359342       -2.73084080990107        0.09169703340465
H            1.46721034237689       -3.00965052250737       -0.20837431511690
