25
 energy: -5.679422865170 xtb: 6.6.1 (8d0f1dd)
C            3.26239799342686        1.16284274597399        0.09484688344462
N            2.31185264483481        0.10095122364421        0.03648110639624
C            2.60708885371122       -1.24610353932726        0.02693845564253
N            1.42269291935964       -1.94455148052890       -0.00834591851612
C            0.40591385259541       -1.06006494151573       -0.00368863757003
C            0.92002955681675        0.22948171282091        0.03039145360312
C            0.10475749633312        1.38724611942756        0.01022765756266
O            0.49144499710447        2.56057632672163        0.01640315266876
N           -1.29816187794887        1.06710573397042       -0.02410090040076
C           -2.26743796248723        2.17717758722384       -0.06763617930248
C           -1.82589880682662       -0.19145871231506       -0.02922847823971
O           -3.02176476594840       -0.40076396946275       -0.05215546663919
N           -0.93492556787390       -1.29352004792472       -0.01662851181478
C           -1.45213122626006       -2.64473183329640       -0.05290244137062
H            3.75404564176932        1.19511152645890        1.07318454158689
H            4.02638623224193        1.03128596820180       -0.67536718734873
H            2.72631294515433        2.09359760915566       -0.06507860316011
H            3.58404300335223       -1.66623638125201        0.03196373718116
H           -1.71949950501299        3.11842559570231       -0.04469789768286
H           -2.87485206090015        2.13609326205336       -0.97063226943025
H           -2.93245929358727        2.12471064928448        0.79410860427116
H           -1.13702955578158       -3.20574066114264        0.83083199976456
H           -1.12254978836125       -3.17350888984432       -0.95227172764615
H           -2.53783817469100       -2.57177093456399       -0.06050899879421
H            1.36152881937521       -2.94947852511568       -0.03377003826671
