25
 energy: 58.081098814241 xtb: 6.6.1 (8d0f1dd)
C            3.43720990220815        0.99484906862940        0.16400358772819
N            2.41014430428808       -0.00323601441258       -0.00094998029856
C            2.69349926833481       -1.30491577085477       -0.06981530730948
N            1.54045234139678       -2.02457856433658       -0.12831438060400
C            0.50084216329673       -1.13545068215990       -0.07190378050974
C            1.03354749942941        0.13840892836260        0.00739208496451
C            0.12072155495005        1.32231260818639        0.08970769487788
O            0.57756794723586        2.44867248997297        0.24508217074159
N           -1.23490109485856        1.04589920662731        0.01348526570606
C           -2.99626058092993        2.77686912876397       -0.28843744512265
C           -1.75921100607043       -0.16967267954642        0.08019870131036
O           -2.91715566553080       -0.50175898557432        0.21281841507543
N           -0.80458090978487       -1.35606745531733       -0.02194744159781
C           -1.26796665821131       -2.71205680632213        0.02145832234398
H            3.98007874123688        0.82397737455219        1.10399212535329
H            4.15490824614565        0.89837779722396       -0.65330128512400
H            3.02006352379678        1.99180096074005        0.17376793676866
H            3.65872023057334       -1.72283241361599       -0.21499231798493
H           -2.30644359105588        3.57323138635093       -0.22539462701363
H           -3.45480207905202        2.60355061114995       -1.22923354507819
H           -3.58013193675329        2.56429160047921        0.56301590289248
H           -0.79388558302500       -3.22641027603371        0.85923140692949
H           -0.98433957259481       -3.21059736164257       -0.90705122963447
H           -2.35372080016715       -2.74505607604877        0.11311436964235
H            1.49602354471353       -3.02356322882504       -0.20656292221882
