25
 energy: 11.160534475519 xtb: 6.6.1 (8d0f1dd)
C            3.33519635307709        1.10204089051140        0.12350298083869
N            2.34077139770042        0.07706103963994        0.01604159081724
C            2.62625214167307       -1.28373212443156       -0.01807251961131
N            1.42638675763998       -1.95962299064811       -0.08972786975401
C            0.42604928133428       -1.05734520177869       -0.03835138630675
C            0.92775258304385        0.23368615210212        0.02754211513404
C            0.05939666336337        1.39541557517756        0.06710783503554
O            0.46115035103460        2.55723381120449        0.14030779941870
N           -1.41686307647765        1.14252168363187       -0.01312317407049
C           -2.46824611003445        2.30305176671185       -0.16616079717262
C           -1.86242864668756       -0.16041154859917        0.03398914597136
O           -3.03653832428669       -0.46314949095636        0.05374298449404
N           -0.91729080903693       -1.26348442038455        0.00992615968499
C           -1.37595545166209       -2.64588478690399       -0.02463132239284
H            3.86724341786060        1.06111971538637        1.08510112943515
H            4.08101360812855        0.98820834210731       -0.67069526426886
H            2.84474283771880        2.06363033338755        0.03586762320582
H            3.59528958419436       -1.73538549835817       -0.06259532517555
H           -1.94228209932646        3.25978860907136       -0.14562633746204
H           -3.06462137159621        2.28070072884000       -1.08536702491958
H           -3.15721937669570        2.30084267720740        0.67795489016245
H           -0.99638630338931       -3.21342436171097        0.83299434396550
H           -1.03494100257306       -3.15230030186409       -0.93632258093903
H           -2.46352670245655       -2.64868716736503        0.00176104654599
H            1.35460264283533       -2.96415823480100       -0.14666266186500
