25
 energy: 4.934539361913 xtb: 6.6.1 (8d0f1dd)
C            3.31855282538047        1.11898490072642        0.11629482351306
N            2.33518009095391        0.08491871980877        0.02287073971892
C            2.62227355845614       -1.27467821588573       -0.00316861380843
N            1.42363485416515       -1.95586523826149       -0.06772068131751
C            0.42199770117102       -1.05539744027254       -0.02096274731010
C            0.92603825691756        0.23495382692170        0.03846910061972
C            0.06828770241079        1.39128598096047        0.06275087241677
O            0.46544437080781        2.55797114563106        0.11067974469434
N           -1.38770679504595        1.12380902532239       -0.01023029863550
C           -2.41530290608842        2.26844709673800       -0.14259255207224
C           -1.85361096710607       -0.16832962777899        0.02374412129823
O           -3.03420455565360       -0.44812405341327        0.02558662366119
N           -0.92199638679103       -1.26571478577669        0.02282047745649
C           -1.39369153893156       -2.64362390680016       -0.03009461049015
H            3.84130709071748        1.09778214437512        1.08234522719076
H            4.06889273633579        1.00194559474066       -0.67251539013899
H            2.81417293553978        2.07182243515752        0.01037987835899
H            3.59358063342901       -1.72115418006834       -0.03424598464407
H           -1.88343168150444        3.22112485695802       -0.12051900581222
H           -3.01590620666256        2.24742247751861       -1.05650392053564
H           -3.09935574926705        2.25748754316682        0.70682846994199
H           -1.03147725675535       -3.21341721830956        0.83210281159986
H           -1.05474626908102       -3.15592124574730       -0.93934475000576
H           -2.48128463645676       -2.62955087756696       -0.01446626187241
H            1.35172857284833       -2.96076004953095       -0.11749166759394
