25
 energy: 56.556228938163 xtb: 6.6.1 (8d0f1dd)
C            3.47551875150130        0.91179460734981        0.18530867753064
N            2.47472928264483       -0.10791731081321        0.02915590415417
C            2.78120791160908       -1.39063839575500       -0.08638077708010
N            1.64306195414556       -2.12095398086691       -0.11567194782736
C            0.58151908314856       -1.24697386456401       -0.02471298502501
C            1.11833511624255        0.02969167897875        0.05699836739189
C            0.21468554997800        1.21879390776308        0.14361967798727
O            0.68157015694253        2.34279060862713        0.25365072887106
N           -1.09776533337420        0.93054717302385        0.09495081850274
C           -3.39432436557108        3.20502296255972       -0.32044679561543
C           -1.65202580882738       -0.24787525930051        0.12624178066846
O           -2.80650314071931       -0.55513919425762        0.23985711915441
N           -0.71176333303462       -1.48819303263750       -0.00448025065608
C           -1.22427809104782       -2.82643786120900        0.01479602932369
H            4.00028372516361        0.73327883515456        1.12019096673602
H            4.19038850239384        0.84685754461169       -0.63754732690775
H            3.00915725057763        1.89884194707780        0.20367329270663
H            3.76829031386274       -1.78508880044165       -0.15784565711752
H           -2.62137218110680        3.91319091046881       -0.25154520956816
H           -3.78594712415824        2.95720180063543       -1.27275121338285
H           -3.93097502105151        2.91726263646369        0.54155452552382
H           -0.77395878891892       -3.38515123570295        0.83920762275031
H           -1.00945365401581       -3.33065104902960       -0.93110305177528
H           -2.29843413545008       -2.78597630773884        0.17658416461241
H            1.61529861211938       -3.12306774008012       -0.18809140116463
