25
 energy: 58.968483280280 xtb: 6.6.1 (8d0f1dd)
C            3.46144837898858        0.95399594140032        0.18094194448312
N            2.43073012824174       -0.03706960818207        0.00321931609849
C            2.72559704051101       -1.32787246719048       -0.07851485385786
N            1.58144344165117       -2.05475743034829       -0.12892749360863
C            0.53035341534538       -1.17416505093904       -0.06515887449652
C            1.06317478238339        0.10134664897016        0.01597215190531
C            0.14516495406661        1.28636203765118        0.10586383972199
O            0.61870503985819        2.40683998140195        0.26088147187914
N           -1.18786992866152        1.01099863189207        0.03760328010961
C           -3.14113778139767        2.92115074989192       -0.30517291191343
C           -1.71944932765903       -0.18798843202938        0.09529627058828
O           -2.87331878909547       -0.51726809705088        0.24509404160828
N           -0.76975632927605       -1.39877183019241       -0.02266427983192
C           -1.24556479877766       -2.74982835355247        0.02842061638756
H            3.98934205295939        0.74018858642388        1.11753276642299
H            4.17403401396715        0.86718642128551       -0.64047525254109
H            3.06015764513656        1.95409066918397        0.22518810449654
H            3.70767509819361       -1.70753386143925       -0.22042644651801
H           -2.41461328168938        3.67921409525440       -0.23599982248406
H           -3.57073027352827        2.72147017978907       -1.25122480110888
H           -3.70571493032017        2.67168648496092        0.54845564394986
H           -0.74570616944966       -3.26025217658011        0.85362283872322
H           -0.99903734102341       -3.25367539817861       -0.90729112890984
H           -2.32689187338530       -2.77282597042816        0.15872778590534
H            1.54740217587723       -3.05392339485641       -0.20128089595707
