25
 energy: 54.997209573097 xtb: 6.6.1 (8d0f1dd)
C            3.47190865389524        0.92477873231282        0.15820078299197
N            2.50790335554124       -0.13767575407946        0.03415084542403
C            2.81518002243739       -1.42326585246620       -0.08720364203217
N            1.67339825603965       -2.15412774054577       -0.10898543593675
C            0.61052111943634       -1.27969130743854       -0.00769573848277
C            1.15119620608223       -0.00283560644950        0.07933901793296
C            0.25365250187225        1.18682751012642        0.15022799355235
O            0.71298321442002        2.31583882938631        0.22024741764844
N           -1.05346017994294        0.88888883277861        0.12326758381534
C           -3.50474857109275        3.35643550630967       -0.31552132545289
C           -1.61920548709488       -0.28318389165534        0.12179693765629
O           -2.77972305696946       -0.58148580299819        0.19530047718748
N           -0.68344752012709       -1.52998531196465        0.00997799798260
C           -1.22262082837897       -2.86074306189808        0.00028700299829
H            3.99817739210096        0.81730236471824        1.10408745512257
H            4.19768083038840        0.87089359869242       -0.65566278601138
H            2.96172247759421        1.88737019989164        0.13958437435175
H            3.79998643283171       -1.83417949775522       -0.14687440921553
H           -2.68940622405968        4.03419327286051       -0.25170684040502
H           -3.88830915894068        3.08081622120695       -1.26934893837162
H           -4.01518732933325        3.05620738085498        0.56685534438091
H           -0.81509543105185       -3.43984730238404        0.83378428899598
H           -0.99371779761326       -3.36656228399595       -0.94392845868659
H           -2.30357252327809       -2.77691001909787        0.12753515039637
H            1.62443676198573       -3.15889469293585       -0.19834897508104
