  72
        -99.33997591
 N         -1.7650268642        3.3450436078        1.7953670423
 C         -1.7125225107        2.1379826858        1.2488085067
 C         -2.8712811574        1.9157298624        0.3330922378
 C         -3.4445210566        0.5165737623        0.3657635031
 C         -4.4480990470        0.1601807167       -0.5379979234
 C         -5.0014316730       -1.1087514016       -0.5400304505
 O         -5.9764421835       -1.5330849482       -1.3713976555
 C         -6.5656415029       -0.6191247494       -2.2657089679
 C         -4.5358038456       -2.0761372608        0.3902767363
 O         -5.1155294343       -3.2900238335        0.3053856068
 C         -4.7456606350       -4.2904996201        1.2253547855
 C         -3.5555149033       -1.7084971563        1.2967330367
 C         -3.0218466694       -0.4255490372        1.2880771014
 C         -2.4193667157        2.2937556360       -1.1048473675
 C         -1.4472056007        1.2672571459       -1.6977447503
 C         -0.1572528624        1.2237574007       -0.9749705954
 N          0.4524447056        0.1130790621       -0.5547242076
 C          1.8419109419        0.1475901425       -0.1637231099
 C          2.7679083983       -0.2510245562       -1.3306923870
 C          4.2091000151       -0.1738666310       -0.9125605344
 C          4.9062742792        1.0195879254       -0.9991527489
 C          6.2351990017        1.0958140240       -0.6108948914
 C          6.8933737958       -0.0234164021       -0.1234346009
 O          8.1807858093       -0.0696675459        0.2701156391
 C          8.9739302018        1.0895519676        0.1610285194
 C          6.1833291282       -1.2507110325       -0.0205192405
 O          6.8993924151       -2.2872538795        0.4620943196
 C          6.2959570108       -3.5546730420        0.5612769567
 C          4.8553806508       -1.3022737815       -0.4122884719
 C         -0.1547924023       -1.1889322266       -0.6920279414
 C         -3.8760948666        3.0031702516        0.8508736836
 C         -4.8391983621        2.4650604956        1.9026841447
 C         -2.9584194099        4.0753104142        1.4658914088
 H         -4.8151927897        0.8940557623       -1.2358376527
 H         -7.0134807459        0.2282058025       -1.7371536233
 H         -7.3474010415       -1.1761932936       -2.7782032006
 H         -5.8432763573       -0.2524213293       -3.0023694765
 H         -4.9506203883       -3.9845037775        2.2556442306
 H         -5.3582571824       -5.1551782100        0.9778856242
 H         -3.6881746527       -4.5560057060        1.1258946164
 H         -3.2013879442       -2.4139228682        2.0305932169
 H         -2.2838806455       -0.1727718629        2.0326850319
 H         -3.2922651680        2.3670235784       -1.7524819860
 H         -1.9422607279        3.2746030204       -1.0789977044
 H         -1.9266829391        0.2908600604       -1.7250383302
 H         -1.2482164105        1.5723925693       -2.7327990099
 H         -0.8999504119        1.4693108894        1.4497997538
 H          0.3926540164        2.1449567600       -0.8661800408
 H          1.9972825460       -0.5388472166        0.6729176136
 H          2.1007663560        1.1557366190        0.1664255008
 H          2.5856817148        0.4289225284       -2.1650093522
 H          2.5275985480       -1.2649730107       -1.6526359910
 H          4.4207549958        1.9019756774       -1.3877862238
 H          6.7541869756        2.0359920479       -0.7002200584
 H          8.5899681667        1.8991805074        0.7891327290
 H          9.0421082664        1.4318415702       -0.8760114553
 H          9.9628719402        0.8001289752        0.5110767866
 H          7.0701690128       -4.2173173981        0.9430769429
 H          5.4528789947       -3.5449261701        1.2596923637
 H          5.9593269769       -3.9169973988       -0.4150698343
 H          4.3112806446       -2.2317263591       -0.3485808836
 H         -0.2027486497       -1.5017536658       -1.7379563049
 H         -1.1658509644       -1.1808915603       -0.2806365626
 H          0.4356956164       -1.9167747358       -0.1407768046
 H         -4.4511131748        3.4175972807        0.0220448661
 H         -4.2948853109        2.0496140859        2.7484209500
 H         -5.4779460884        1.6886484537        1.4901488914
 H         -5.4707024898        3.2738497034        2.2631898817
 H         -3.7082787781        5.5892823906        3.8033041890
 H         -2.7285914946        4.8794163571        0.7581556908
 H         -3.3835113999        4.5612490586        2.3766602106
 H         -1.0846556426        3.7041446855        2.4471627964
