25
 energy: -42.123148931472 gnorm: 0.007223200787 xtb: 6.6.1 (8d0f1dd)
C            3.05966035710148        1.03200068985182        0.71796060013922
N            2.44843108524076        0.20582590863643       -0.30323455295485
C            3.12552282160242       -0.21738464046908       -1.28318780246524
N            1.22841227693262       -2.29142450529526        0.22133497240967
C            0.46907259538151       -1.27100280123007        0.05744089095976
C            1.03186544078713        0.01695576766099       -0.18170468959691
C            0.22530412815239        1.19849346431421       -0.28292709058160
O            0.68184738371860        2.32146878497373       -0.43381196420051
N           -1.14884747336267        0.99245708021884       -0.20300880063553
C           -2.03050847134477        2.13442875513055       -0.32894350020407
C           -1.75262540640479       -0.23076521773617       -0.00345437666664
O           -2.95461291974449       -0.33167561841470        0.05507776813366
N           -0.92178639062278       -1.33114503857766        0.13363509913103
C           -1.56271039314869       -2.60863790230593        0.37596856902209
H            2.78170660953657        0.66671838781887        1.70965130578301
H            4.14189788542113        1.01217272910806        0.59503278203381
H            2.70357338931447        2.06400598451676        0.61018933519645
H            2.77930765411392       -0.82022391361201       -2.10366860119098
H           -1.41997979224509        3.03473150089442       -0.39276512063343
H           -2.64722721599574        2.03622364644697       -1.22586151005033
H           -2.69971057597023        2.18411391560001        0.53264275183726
H           -1.32159193047662       -2.97873102725421        1.37703672574072
H           -1.25417044754373       -3.34054245206769       -0.37352786526113
H           -2.64227069971308       -2.46255837090761        0.30782997758012
H            0.83987160336993       -3.19726658570249        0.45346671437422
