25
 energy: -42.182472928349 gnorm: 0.006483937321 xtb: 6.6.1 (8d0f1dd)
C            3.43054936363550        1.48174598152134        0.54273213018852
N            2.20630729699658       -0.50978757754954       -0.23931161300775
C            2.49713725289555        0.84407828195497       -0.48474309260335
N            0.49578856607012       -3.00856851161479        0.18511349666946
C            0.09412248791763       -1.81035443774783        0.08654927156473
C            0.92327954070094       -0.63084811519775       -0.12454421964774
C            0.29775484182684        0.65362781692082       -0.28945977427493
O            1.21084412781153        1.55462720534352       -0.52051987295339
N           -1.00433471547771        0.82173530883242       -0.20915078071180
C           -1.64644063135228        2.11293325295365       -0.36603359769295
C           -1.86026222535203       -0.30856090246207        0.02244069679377
O           -3.04067803962195       -0.12993472036957        0.09239792224675
N           -1.25838028941249       -1.53940887509425        0.14973715563013
C           -2.12893250153713       -2.69122428755158        0.32079486823758
H            4.35732757392872        0.91567545083707        0.56749587768527
H            3.63281724178859        2.50962800554174        0.24678938645785
H            2.97592865309562        1.46705339302806        1.53339165939478
H            2.94813670459372        0.94493956722805       -1.48638208943976
H           -0.88261695040936        2.88305009463935       -0.43514464521284
H           -2.26243528091527        2.11158045783239       -1.26632779377631
H           -2.30037149959580        2.29687395171322        0.48690921738469
H           -1.78615971380559       -3.27592197964860        1.17384051910410
H           -2.07585658964125       -3.32307063736994       -0.56680778692042
H           -3.14980780875620       -2.34953971713210        0.47352807455116
H            1.48671410873247       -3.20209046500907        0.13787660823652
