25
 energy: 0.000000000000 xtb: 6.6.1 (8d0f1dd)
C            3.23720132972391        1.16630909158653        0.08434468864950
N            2.29877796055224        0.07527476373246        0.03981602671198
C            2.58028186251803       -1.21425391179017        0.03006175752192
N            1.43813944744728       -1.93419254010258        0.00098261751768
C            0.39035684826767       -1.05887462812143       -0.00790371763344
C            0.93510047688824        0.21347817468824        0.01709077332874
C            0.09450143016486        1.40504290868848       -0.00410946993748
O            0.49712746915594        2.54126690785742       -0.00342325656480
N           -1.25076628431515        1.06271869620815       -0.03085477937476
C           -2.21907191394203        2.15522079838987       -0.05001256521996
C           -1.81739470187490       -0.20012724136556       -0.04692818139228
O           -2.99983858926755       -0.37846413507442       -0.07008877579474
N           -0.92618577614240       -1.30210203518959       -0.03682761236648
C           -1.46982251276835       -2.64643077634382       -0.06029819901142
H            3.71247229913541        1.21471443890471        1.06488839270555
H            4.00791460421487        1.03430799217987       -0.67357688121503
H            2.69909982127087        2.09770098766290       -0.09130154035862
H            3.56654087521359       -1.63682977417947        0.04233139674524
H           -1.67107945562430        3.09322822573871       -0.02552706696334
H           -2.82428927394145        2.09428605349656       -0.95318074103337
H           -2.87644002486466        2.07745706351925        0.81450059976605
H           -1.17061985538665       -3.19584861009707        0.83242224714061
H           -1.14560246782873       -3.17511580834413       -0.95688266944647
H           -2.55549768731684       -2.55659960601237       -0.07459039105944
H            1.38130842369251       -2.94313824728853       -0.01389874052104
25
 energy: -5.697684150192 xtb: 6.6.1 (8d0f1dd)
C            3.28244218250479        1.16909576489976        0.08947876278424
N            2.32106371587619        0.11359090285129        0.02226479312331
C            2.60311239567418       -1.24050727533923        0.03863243531914
N            1.40931626253802       -1.92627842473719        0.01222006882555
C            0.40333540760661       -1.03171031969811       -0.01849709163824
C            0.92685183334335        0.25297586795004       -0.01566794136653
C            0.10200701599914        1.40165399777376       -0.05210947924968
O            0.47960471028925        2.57572856166751       -0.07038033696889
N           -1.30355457881063        1.07134219996391       -0.02316071314452
C           -2.28399713007268        2.13514253718829       -0.01538222954653
C           -1.82369016250673       -0.17878153057301        0.03271785701941
O           -3.01932834230709       -0.38516438723504        0.07228237099713
N           -0.93604910274182       -1.26601129520141       -0.04090153520967
C           -1.46260623418429       -2.61133954356311       -0.10236233617873
H            3.72538326182350        1.23416213372583        1.09360980101771
H            4.08302881945886        1.01708163804356       -0.64358542361025
H            2.77749659664117        2.10285332266694       -0.13552235208233
H            3.57495801601003       -1.67085153453114        0.07133523206523
H           -1.71080038755664        3.06636997009676       -0.03039490784013
H           -2.92402709476136        2.05098293162452       -0.90137029332079
H           -2.89965634294580        2.06072681306867        0.89051271086698
H           -1.12986952977395       -3.19741582249476        0.75745338457694
H           -1.14544193906130       -3.10286490545376       -1.02567745096177
H           -2.54956605630876       -2.53868502653840       -0.09034075781960
H            1.32650030999715       -2.93062231335727        0.00988829044550
25
 energy: -2.314189494723 xtb: 6.6.1 (8d0f1dd)
C            3.32273610428268        1.15816993964096        0.09298448316653
N            2.33907603477184        0.12413010972365       -0.00062535037999
C            2.59568973018313       -1.23596712739998        0.06976478912205
N            1.39334347815038       -1.90559307249110        0.04515783493686
C            0.40866498875649       -0.99184933529354       -0.02689756049959
C            0.93772126898953        0.28600988320485       -0.05463218258914
C            0.08981861504757        1.42393878066394       -0.11395355380042
O            0.46775936458400        2.59337857685217       -0.17126201374258
N           -1.32548482601578        1.10821429031058        0.00637362628528
C           -2.35269962278698        2.12016042518793        0.03919734908504
C           -1.80907461874888       -0.15313902130670        0.14045038542273
O           -2.99094127657330       -0.38217289555435        0.28511148211722
N           -0.92689065516322       -1.22252881192397       -0.04812067394492
C           -1.44576194764620       -2.57641555849502       -0.14878941893332
H            3.72193773301475        1.24580723453038        1.11895611267418
H            4.15592439076835        0.97296958601294       -0.59937718832044
H            2.85848325536263        2.09684161227995       -0.17988198748969
H            3.55825667818873       -1.68440912788857        0.11977744874847
H           -1.80747632155041        3.06856663228582       -0.03994315177768
H           -3.01967836133727        1.98992115057021       -0.82632252561551
H           -2.90635048438590        2.03487776728912        0.99660143781447
H           -1.09023310712845       -3.20000958763261        0.67712042819903
H           -1.14259376620673       -3.02135933254355       -1.10071417517507
H           -2.53296800039969       -2.52248906336151       -0.11284063253318
H            1.28171056299567       -2.90895390958526        0.05667270807526
25
 energy: 3.434705264701 xtb: 6.6.1 (8d0f1dd)
C            3.36262733528742        1.14202143808602        0.08419743172631
N            2.35748688971464        0.13242187294260       -0.03115363931313
C            2.58643649755082       -1.22777596987633        0.12123680267523
N            1.37768606279337       -1.87936603648256        0.09300341236892
C            0.41334323371433       -0.95204318320358       -0.03823633745670
C            0.94935585041772        0.31791135171670       -0.10299529216608
C            0.07616563188970        1.44614695810078       -0.18751846071529
O            0.44909865528829        2.60989277340525       -0.29537180910932
N           -1.33463134345361        1.15004002687365        0.06085982622696
C           -2.42419378733273        2.10403666088087        0.09686116839947
C           -1.78227924641431       -0.12463387173991        0.25350803906612
O           -2.93534205714100       -0.37608459354199        0.52530130789212
N           -0.92023926478132       -1.18148224603954       -0.07292867083535
C           -1.42750452186017       -2.54323825612473       -0.20206200749591
H            3.70417954305031        1.27500137252680        1.11835249972710
H            4.23003434135334        0.90467165921135       -0.54887877693446
H            2.94850900558518        2.08381430986064       -0.23912628311039
H            3.53713744553899       -1.69520483666759        0.19330648565794
H           -1.93514684299844        3.07225745653454       -0.05096045394059
H           -3.11354315703986        1.92247213059860       -0.74345573322204
H           -2.92510635962437        2.01891428468340        1.09111056308898
H           -1.05331594212246       -3.20184067217058        0.59116349556525
H           -1.14162137857265       -2.94485851992805       -1.17884029428371
H           -2.51308627776816       -2.50930547963834       -0.14239951943216
H            1.24094331366249       -2.88035801980386        0.12506958554104
25
 energy: 11.766667266632 xtb: 6.6.1 (8d0f1dd)
C            3.40262956377909        1.12004609974340        0.07573175259833
N            2.37307609724325        0.13748736710400       -0.05923281738251
C            2.57474410431127       -1.21674836572935        0.17659256460156
N            1.36239776505472       -1.85175666504056        0.14923547824497
C            0.41664743508884       -0.91900054528932       -0.04835601363417
C            0.95602741705247        0.34556869953690       -0.15386452220357
C            0.05437307594335        1.46371801277699       -0.27122771662428
O            0.42154303723174        2.61888279920336       -0.43421509265021
N           -1.37226200997037        1.19616232908363        0.07628873583094
C           -2.50735342692230        2.10054469398535        0.12932293322521
C           -1.75561042331778       -0.08788670910044        0.35060857612307
O           -2.85963149473775       -0.36691017167704        0.76466900946145
N           -0.91655511575000       -1.13901146244465       -0.07837100856340
C           -1.40925713153631       -2.50950616395889       -0.25419530105178
H            3.69486981788160        1.30350336585225        1.11073612448315
H            4.29721550263113        0.82196006903034       -0.49206923172833
H            3.04345623053102        2.06240113458376       -0.29824535166219
H            3.51107560394593       -1.70371241249214        0.28248473781068
H           -2.08051597754939        3.08214654652660       -0.07923774402592
H           -3.21246087448471        1.85576621520776       -0.67218607076671
H           -2.99604129138571        2.06683948694796        1.13007158889321
H           -1.01844605988660       -3.20552096512939        0.50229782410088
H           -1.13932016834176       -2.86391396695653       -1.25566355690636
H           -2.49222495654221       -2.50075038815603       -0.17596267236118
H            1.20344040243604       -2.84883396302700        0.20766023447983
25
 energy: 23.088220009732 xtb: 6.6.1 (8d0f1dd)
C            3.44123599755815        1.09214618250972        0.06702042823898
N            2.38712165629542        0.13496710413692       -0.08664324667843
C            2.56561118416298       -1.20777538576379        0.22342134226892
N            1.35123826251398       -1.82817578278463        0.20834356451178
C            0.42190405272401       -0.90015803133916       -0.05490106610392
C            0.96154642390236        0.36236145275612       -0.20324687500527
C            0.03490832656753        1.47248757192288       -0.35677265385545
O            0.38837672247247        2.61804019077869       -0.57954146672981
N           -1.41615131252807        1.23489997453109        0.07985579852197
C           -2.59286139930651        2.09424110778206        0.14062111847181
C           -1.72501002614100       -0.05374444633804        0.42943606667064
O           -2.76694438045373       -0.35718930478970        0.97367673641272
N           -0.91535519920658       -1.10250836881877       -0.11715719841383
C           -1.39295111659571       -2.48071876997335       -0.31253961426137
H            3.68142775427287        1.33119074987320        1.09876720970333
H            4.35702165671583        0.72942594593315       -0.42802753542741
H            3.14243981316994        2.03186524393977       -0.35867152326973
H            3.48503261247849       -1.70973899717038        0.38076562871352
H           -2.23155277968705        3.08676131316940       -0.11446106479501
H           -3.30832182329131        1.78316358528952       -0.61282620837223
H           -3.08914845674074        2.10233031570836        1.12713999334495
H           -0.98648454529691       -3.20852162877616        0.41059582951011
H           -1.14025436074640       -2.79047700046602       -1.33447326882613
H           -2.47216451587595       -2.49334986142244       -0.21399075270174
H            1.17176965784192       -2.81847556964562        0.30017801274165
25
 energy: 37.906003617623 xtb: 6.6.1 (8d0f1dd)
C            3.47698928508756        1.05930375882233        0.06392351249322
N            2.39714063128492        0.12305333667133       -0.08731892841616
C            2.56269391777344       -1.20577856334665        0.26519078804450
N            1.34679331319438       -1.81335338412183        0.26177535718710
C            0.42903012981897       -0.89856900330829       -0.06302533996721
C            0.96687457623590        0.36611178766600       -0.24975553872853
C            0.02600564227444        1.47076793914295       -0.44380161831727
O            0.35413953582289        2.60771177780333       -0.72176046923238
N           -1.47551943601670        1.26235673759316        0.06390644763640
C           -2.68273253843611        2.08781150726655        0.13584291643691
C           -1.68982510111011       -0.01297762779422        0.49758527826456
O           -2.65463760515492       -0.33896786855735        1.15908178048539
N           -0.90751832511268       -1.07715716383211       -0.15289856048095
C           -1.37887998122926       -2.45550411844926       -0.37172660214577
H            3.66352227334296        1.36147049280682        1.08843838114731
H            4.40547972362759        0.63163854568631       -0.35699407653072
H            3.24156289204188        1.99025535474257       -0.41801213124276
H            3.46322152676357       -1.71425247683165        0.48470781215359
H           -2.37603759778405        3.08594941019468       -0.15313137106987
H           -3.40558431910109        1.70757234695199       -0.56036810077747
H           -3.18611648342542        2.12313488696684        1.11655344375300
H           -0.95679399212379       -3.21263265125134        0.31726989883259
H           -1.14316428894228       -2.71839383643699       -1.41241477528488
H           -2.45412093694472       -2.48591638318322       -0.25311949119906
H            1.14705422481469       -2.79279106644722        0.39487422209942
25
 energy: 55.020440801855 xtb: 6.6.1 (8d0f1dd)
C            3.51228025029884        1.02741868874524        0.06896450293864
N            2.41040204558627        0.11058833173865       -0.05416332180888
C            2.57219181394226       -1.21981189313825        0.27850007072798
N            1.35204831959272       -1.81487418294276        0.30376397157255
C            0.43727657073821       -0.91314056697281       -0.05392516025708
C            0.98124740175887        0.35463148705558       -0.23533167008407
C            0.05726296420583        1.45671461408556       -0.48005169067484
O            0.33003372494249        2.57952388478588       -0.84530079792313
N           -1.54728410073486        1.29314083498093        0.04743735151982
C           -2.77629227642837        2.09053868714971        0.12701809999652
C           -1.66102700789684        0.05081317553221        0.54757109745009
O           -2.51599850643611       -0.30937627446791        1.32329642540813
N           -0.89109979710967       -1.06152834148605       -0.18892100668196
C           -1.36732510263382       -2.43261776193394       -0.43169402817126
H            3.64363422859694        1.39695782342757        1.08039042672103
H            4.44279467269756        0.53812951661887       -0.28255551556354
H            3.33634883536166        1.94054762910830       -0.47366946327619
H            3.44822522296783       -1.71833985329993        0.59059483452065
H           -2.50463125632228        3.08669961850191       -0.18944691045746
H           -3.49564326543809        1.63511496745754       -0.51378839353276
H           -3.28945471665432        2.12801945635848        1.10358319511036
H           -0.92873836342848       -3.21613611361018        0.22269480734456
H           -1.14743152459186       -2.64889127797874       -1.48833110022514
H           -2.43900643350861       -2.47853435462333       -0.29222563968475
H            1.13209334579671       -2.77778992780186        0.48455259041014
25
 energy: 77.052660121588 xtb: 6.6.1 (8d0f1dd)
C            3.54592075604574        0.99614173808533        0.07627066296723
N            2.42959822069537        0.09106477387553       -0.02052598798704
C            2.59344094399908       -1.24987052731371        0.25950717000219
N            1.36954720720650       -1.83889699642407        0.28200466910220
C            0.44750349592141       -0.93405736889436       -0.06078983645270
C            1.01072245553322        0.34656875590010       -0.20490509565166
C            0.16662018332421        1.45870083240179       -0.48904627067727
O            0.31645491213571        2.55507973354614       -0.95536246332916
N           -1.65256991238695        1.33410831349967        0.03321473154362
C           -2.89043861838946        2.09733683144824        0.12257181746795
C           -1.65012790086552        0.15047636406412        0.59586035270584
O           -2.35796841411861       -0.26852814022502        1.47056513581497
N           -0.86103294238098       -1.06043723174744       -0.23213832722861
C           -1.35824867260722       -2.41348036244934       -0.49309309998813
H            3.62386537006954        1.43229556067079        1.06866239895881
H            4.47060792587464        0.45297274388203       -0.20972820866770
H            3.42669511456023        1.88616895318238       -0.52515000648062
H            3.43665053798863       -1.72058786573529        0.68734196323007
H           -2.63724735179023        3.08395650495306       -0.22918174678375
H           -3.57910197427280        1.55014923103461       -0.47062030517345
H           -3.40815254575885        2.13818983630604        1.09264021937895
H           -0.90359974178067       -3.22044314735579        0.12744256474432
H           -1.15712519365579       -2.58295655030157       -1.56311690024548
H           -2.42735809061279       -2.46885758459584       -0.33014844268659
H            1.12543401594042       -2.76703885560619        0.56232339386484
25
 energy: 96.568004260878 xtb: 6.6.1 (8d0f1dd)
C            3.57940255964411        0.96380810428083        0.08139038138032
N            2.46397669781098        0.05426995763249       -0.00221903090457
C            2.62178438235523       -1.28283653683043        0.25316487514688
N            1.39774902951927       -1.88002296751255        0.24706291989833
C            0.45814633873717       -0.96818888930949       -0.08663705824497
C            1.06790162599425        0.32216790183423       -0.20144308568392
C            0.33960252922516        1.44826701821469       -0.50645889554285
O            0.28268684697688        2.50181492453719       -1.05297652166061
N           -1.81422604184764        1.41575008686838        0.04315836345520
C           -3.05313896510522        2.11760544277676        0.10912568730238
C           -1.70443736802707        0.33951587879253        0.67017276760563
O           -2.17910574531442       -0.21040000867971        1.60911419472417
N           -0.80513432203604       -1.09793128369026       -0.31201733894039
C           -1.34739670601866       -2.41250023922242       -0.56355629262241
H            3.60941896322514        1.46153757834905        1.04793282132115
H            4.49308536456753        0.37666587792915       -0.14005156080261
H            3.50928368083363        1.82824211075340       -0.57379210702237
H            3.43464382014727       -1.70665858563477        0.78180500393732
H           -2.78131849846857        3.08437976758400       -0.25770514968972
H           -3.66252870931377        1.47691199317176       -0.47891432233340
H           -3.56130485555414        2.15090652783402        1.07689098103461
H           -0.87915141213217       -3.23546547336442        0.02701372499658
H           -1.19122713888362       -2.53195548732971       -1.64580776447236
H           -2.41492529283115       -2.45677716919746       -0.36631909647544
H            1.15257717123435       -2.76804843107281        0.62900958601269
25
 energy: 96.246479927621 xtb: 6.6.1 (8d0f1dd)
C            3.60951589391759        0.93199597549163        0.08329695756877
N            2.49679237390996        0.01846561513812        0.00397402738851
C            2.65020888062132       -1.31531405841773        0.24267601154968
N            1.42981369922574       -1.92269138188580        0.21439794816867
C            0.47910656150736       -1.00299372346534       -0.12127642203061
C            1.11539910686953        0.29050672133989       -0.21425779127697
C            0.42337676865003        1.40820448849314       -0.53256777073444
O            0.23605843479196        2.43010901983262       -1.10857020092914
N           -1.94124302502874        1.49398533165381        0.06602004655178
C           -3.18446077979256        2.15252476002324        0.08069067077780
C           -1.72620826871225        0.50029732934521        0.73851354072311
O           -1.99040954257725       -0.12097173339062        1.70583242726677
N           -0.76024252440750       -1.12478797507400       -0.37434075702992
C           -1.34710587907008       -2.40333150608905       -0.62088934985160
H            3.59840492207148        1.48460191840170        1.02255766397580
H            4.50656151603570        0.30164608141512       -0.06561888857607
H            3.58602665562000        1.76798966018235       -0.62152955956858
H            3.44187729587292       -1.67942291404448        0.85186989382321
H           -2.90275491406154        3.10587209132968       -0.30539602970774
H           -3.74411493331175        1.51219294970920       -0.55797152862509
H           -3.70136900237177        2.16880224532124        1.04303812964629
H           -0.86299315893932       -3.24197383983628       -0.06768292425036
H           -1.23931124552059       -2.47089922127971       -1.70824333029701
H           -2.41132209674783       -2.43887619566670       -0.39480452248023
H            1.20926850520641       -2.81393062742836        0.60595339852744
25
 energy: 91.800509311158 xtb: 6.6.1 (8d0f1dd)
C            3.61918067632478        0.91279335378331        0.08669966536095
N            2.51721975213747       -0.00841184538871        0.00494938540032
C            2.67589944122356       -1.34298490788681        0.22815680583310
N            1.45676451849435       -1.95351237447284        0.18181711358502
C            0.50273872471946       -1.02906738547033       -0.15731787423753
C            1.15357778121211        0.26413013142348       -0.24741026753663
C            0.47756437550037        1.38914515301558       -0.56184272726907
O            0.21986562801037        2.37215229556972       -1.19030280030810
N           -2.04409352964427        1.56188960181543        0.09161334755050
C           -3.29124912851703        2.18978425365779        0.06450937786084
C           -1.72358296487754        0.62653123065081        0.78193523445887
O           -1.80301164342785       -0.01737348478159        1.76292270199846
N           -0.72833437772761       -1.13944342728202       -0.42161627260054
C           -1.36293200746724       -2.38461689158737       -0.64983375430496
H            3.56224134735885        1.51925954218175        1.00050787716111
H            4.49728535994201        0.26425222144691        0.02429925282648
H            3.64749587109695        1.70442433350586       -0.67250060581023
H            3.46953040676593       -1.64426151462251        0.87227684594543
H           -3.01350342984767        3.14430290951242       -0.32195054927127
H           -3.81420218470731        1.57290474951079       -0.62694758487219
H           -3.82622156269020        2.18953887283294        1.01806765551902
H           -0.85604370337297       -3.24224491855913       -0.14964974500577
H           -1.29976485261547       -2.44491111076894       -1.73542076424762
H           -2.42108021301725       -2.41033168408566       -0.38370454856070
H            1.24230608844263       -2.85711872452171        0.54322725344805
25
 energy: 86.130791548466 xtb: 6.6.1 (8d0f1dd)
C            3.63174148686646        0.88189277919986        0.09458263652868
N            2.54408341978183       -0.04577909106873        0.00432366921022
C            2.69902690104438       -1.38174846795946        0.21420251305379
N            1.48141826678113       -1.99093038349992        0.15557261096899
C            0.52848572976216       -1.06249756151342       -0.18764094097745
C            1.19496680592388        0.22332963295399       -0.27182080016540
C            0.52372213188878        1.34711758274909       -0.56246212963817
O            0.21872264686122        2.31296622229536       -1.19043352207782
N           -2.16820154812454        1.58481085257585        0.11090894126850
C           -3.40047018189095        2.21865485497618        0.05873007685656
C           -1.71564495928102        0.73424900862588        0.81453680526823
O           -1.60979513698362        0.08901517862406        1.78997828572457
N           -0.69826205827594       -1.16568424571942       -0.46071067926541
C           -1.36496786142790       -2.39593707280266       -0.62693059029838
H            3.53538290044651        1.53927238758759        0.97286416735586
H            4.50407776281564        0.21763660899178        0.12094923796984
H            3.71476230189090        1.62603727775967       -0.71124284249599
H            3.50744031982832       -1.69216433262589        0.82364259009127
H           -3.11819946345134        3.18810341129399       -0.30458984980920
H           -3.90951241709624        1.62934037972387       -0.67554052995195
H           -3.95060680664866        2.20244246281277        1.00466380195520
H           -0.84544538569458       -3.24947666570133       -0.18025182659438
H           -1.31246928271663       -2.52328241931193       -1.70495038260626
H           -2.41864501920665       -2.39435231886559       -0.34396537084188
H            1.26870586660043       -2.90596523051657        0.48751870890622
25
 energy: 80.179613605748 xtb: 6.6.1 (8d0f1dd)
C            3.63928994219635        0.87378555833913        0.12180348732575
N            2.57321904538527       -0.07703404678274        0.01207924248262
C            2.72301846755680       -1.40954047774061        0.22663442729742
N            1.51088175131330       -2.02077759582333        0.12670516461948
C            0.55638335621501       -1.09189151581718       -0.22321449380705
C            1.23466951264733        0.18887753362046       -0.29610646822872
C            0.58231711723976        1.32032551702552       -0.58749607214816
O            0.28417200017652        2.27558554791765       -1.24230406147979
N           -2.30545550554734        1.57915295805724        0.15081103220383
C           -3.50134897966427        2.25873465941135        0.06782393029629
C           -1.71277316958948        0.84707101905530        0.86766442392401
O           -1.42369866392814        0.20123928032786        1.80209047025827
N           -0.66608079361609       -1.20012849131475       -0.50833449473770
C           -1.34376419144130       -2.42567691424458       -0.64045736535417
H            3.49465708012810        1.56630304252778        0.95583582149272
H            4.51281020863837        0.22355655380174        0.23123344284561
H            3.75249757192014        1.54874553666084       -0.73462516341541
H            3.54210882751421       -1.76013073780613        0.79059939075103
H           -3.19943024256925        3.23975325505816       -0.26160116002489
H           -3.99616257786942        1.71748221495823       -0.71158841597750
H           -4.07522034393846        2.23097980599128        0.99969913228901
H           -0.82628463096280       -3.26304341486715       -0.21648732470356
H           -1.30641874180908       -2.61280000627439       -1.70575403725806
H           -2.38984569798060       -2.39575254319358       -0.33751404421194
H            1.29618354700996       -2.94782334631013        0.42610824597688
25
 energy: 74.039771366496 xtb: 6.6.1 (8d0f1dd)
C            3.64719920774643        0.87779021213952        0.13030814002043
N            2.60660719975148       -0.10355622767768        0.01634860557421
C            2.74515832033232       -1.42989145553807        0.25131689944564
N            1.54239057383189       -2.04583832616857        0.10450009919435
C            0.58584521624481       -1.11766109213616       -0.25764203585237
C            1.27479291941068        0.15948398777457       -0.31826998804193
C            0.65788914139037        1.31115317821007       -0.60983500151822
O            0.39788335258341        2.27584189744730       -1.27457116834611
N           -2.44867634454701        1.55287546175992        0.20432717959697
C           -3.59936345187728        2.29379936415721        0.08347545294356
C           -1.71710426546396        0.96664145448285        0.92345626731041
O           -1.26221121544567        0.34035757645403        1.79801884163033
N           -0.63292723542522       -1.23592918809736       -0.55793140491633
C           -1.31776784859149       -2.46236560120437       -0.64791701773677
H            3.46598490478652        1.57651509405049        0.94886378225098
H            4.53359890782707        0.28512939923471        0.29743802486701
H            3.78617888057592        1.49892444931399       -0.77968000551721
H            3.58236029542125       -1.82243890351098        0.74775178490507
H           -3.27394978549020        3.28717750180331       -0.18992323302646
H           -4.08941596779060        1.79536689383893       -0.73010107660940
H           -4.19706677393824        2.25914397102150        0.99935565967760
H           -0.84078171142269       -3.25830943575512       -0.12365458995596
H           -1.26815651004650       -2.72695266886238       -1.69474503853616
H           -2.36584292362331       -2.39124578331568       -0.36350843739468
H            1.32841510813758       -2.98747677085076        0.35724922453899
25
 energy: 68.159625320241 xtb: 6.6.1 (8d0f1dd)
C            3.66362001459626        0.84682508780972        0.17008156755730
N            2.64221011844908       -0.14269948057379        0.02469739173707
C            2.76931859534017       -1.46448278774936        0.27612550448189
N            1.57293296986738       -2.07885081061057        0.08844438205743
C            0.61668418739428       -1.14964145209374       -0.28422599081952
C            1.31689092110999        0.12445882307250       -0.33373224169869
C            0.74261127346879        1.29354059686574       -0.62292359922767
O            0.49414209623530        2.28865041939567       -1.24328370995031
N           -2.57840318142476        1.53195911727094        0.26890041257125
C           -3.69086754073178        2.32793625081411        0.10014583524952
C           -1.72995595656347        1.08854469291415        0.96553947789465
O           -1.11560814956171        0.49385395300924        1.75702827067380
N           -0.59809951496162       -1.27746277550233       -0.60214179831489
C           -1.28693876780431       -2.50715499758451       -0.65543977724838
H            3.45711090125703        1.54791299851045        0.97781232818333
H            4.55734760820741        0.29688919149428        0.39878266800652
H            3.80619414724836        1.44578397014843       -0.73978456096606
H            3.62237095351489       -1.88973052167227        0.71094462976883
H           -3.35107451108461        3.33119554482855       -0.13299795734362
H           -4.18036783553258        1.86842770676647       -0.74192702516502
H           -4.31842880701289        2.29151020465253        0.99539849854393
H           -0.84348992159641       -3.26542047881472       -0.04534820368315
H           -1.23443684419350       -2.83390778048371       -1.68735681247801
H           -2.33607830078234       -2.39341719481445       -0.38825371300284
H            1.36425560234856       -3.03375484169160        0.28798213756777
25
 energy: 63.053787585655 xtb: 6.6.1 (8d0f1dd)
C            3.68914167040152        0.81616358077726        0.19185927367227
N            2.68258965605689       -0.18119786617213        0.03206814667871
C            2.80057723305491       -1.50153868696638        0.30471340097492
N            1.60746718380118       -2.11114474894093        0.07629419497269
C            0.65105128378663       -1.18714534017507       -0.31145301485807
C            1.36188595676926        0.08600123738926       -0.35102258045476
C            0.82859721035693        1.26432580828437       -0.63780789444434
O            0.53099704658740        2.28863210424585       -1.16577230697928
N           -2.67264633030448        1.53687794182952        0.33451128805953
C           -3.77496236488402        2.35879741934770        0.11965151464178
C           -1.74098527148012        1.18727352691595        0.98405288584814
O           -0.96705408066887        0.64108633717092        1.66307357462808
N           -0.56069327965838       -1.32495910874984       -0.64636841109533
C           -1.25906304179139       -2.55660059154761       -0.66534191949667
H            3.45521902791811        1.52317566532405        0.98832544886561
H            4.58272373851599        0.30543422999283        0.49476924740155
H            3.85134244225455        1.36952096579416       -0.74519474984686
H            3.66249296439345       -1.95048555365980        0.70609136048935
H           -3.43635561675021        3.37224716560429       -0.08355484132708
H           -4.26538219992479        1.93540215900132       -0.74734016073277
H           -4.43424747703801        2.32605862094677        0.99182292712339
H           -0.84887495929710       -3.28854546509248        0.01249531008934
H           -1.21325981659233       -2.93733120432067       -1.68247502927196
H           -2.30672390339293       -2.39475845529446       -0.41464213241264
H            1.40876769059294       -3.07628085634303        0.21833729001606
25
 energy: 60.074606701994 xtb: 6.6.1 (8d0f1dd)
C            3.72888087833918        0.77769873512630        0.20299020018509
N            2.72196925868984       -0.21814425008901        0.04080430822257
C            2.83211371757294       -1.53603527576491        0.33311321868351
N            1.64381437000734       -2.14602132548776        0.07276095326683
C            0.68817012197661       -1.22681661726862       -0.34262892472044
C            1.40522924105542        0.04988111819373       -0.37013493600565
C            0.91022176557218        1.23906407611655       -0.65875628040205
O            0.52829234117162        2.28796331837107       -1.06074215320989
N           -2.74222042737251        1.58126942171640        0.38713819175677
C           -3.85561249036360        2.39688485807986        0.13553026543449
C           -1.77155810842284        1.26210588509649        0.98236766359442
O           -0.90158738580468        0.75083256248219        1.55861711226726
N           -0.51799343173574       -1.37719617780445       -0.69798420478707
C           -1.22999056358955       -2.60909082333536       -0.67978369279709
H            3.47691636786149        1.47927921420766        1.00550474258209
H            4.64598935164656        0.27645245097270        0.48204113459692
H            3.88794333064314        1.30987427475648       -0.74837625076898
H            3.70382896130447       -2.00153845981401        0.71150255045952
H           -3.52882192268901        3.42283290468530       -0.04296769394184
H           -4.35012286952291        2.00156895452156       -0.75177999827250
H           -4.54122443458721        2.35936681512276        0.98951961506275
H           -0.84418358392065       -3.33821615029663        0.03426170287527
H           -1.20522845436454       -3.03529466229197       -1.68493449788177
H           -2.27119319804457       -2.39750590333523       -0.43315802204219
H            1.46268080969701       -3.11657553901648        0.21929501976086
25
 energy: 59.210771903035 xtb: 6.6.1 (8d0f1dd)
C            3.74801237929540        0.75848162911949        0.21930323558510
N            2.73271116325772       -0.23244963636855        0.06565748760205
C            2.84328161204226       -1.54813961884807        0.34586498282864
N            1.65477504202075       -2.16024071698935        0.09456105721559
C            0.70630326653302       -1.24473569535629       -0.35488907163553
C            1.42371014591655        0.03303373227168       -0.37159269268626
C            0.94705023881695        1.22437526002279       -0.68052371133036
O            0.48700793805832        2.27026209219931       -0.98545811081832
N           -2.79978034238961        1.56415085181171        0.42872792240977
C           -3.89348704861749        2.40602894592909        0.16111934363857
C           -1.80527417481418        1.27092805371729        0.99497967317829
O           -0.83240575639758        0.82167340469255        1.44181643248392
N           -0.50286035123898       -1.40273562938331       -0.70134257343210
C           -1.21347287799922       -2.64054996011571       -0.68212074154105
H            3.49232359737633        1.44216129931888        1.03352611474383
H            4.69879180277025        0.27725148986992        0.44356350421230
H            3.84822234241327        1.33998153063614       -0.70049754563019
H            3.72775246564954       -2.02547280000232        0.69570623989521
H           -3.56807678652267        3.43380290978247       -0.01478777162414
H           -4.38012742149248        2.02684229405825       -0.73830748684140
H           -4.60604870688295        2.38479813793306        0.99016732526399
H           -0.84330055399313       -3.37904920548523        0.04030953563086
H           -1.19815531202173       -3.08564529423585       -1.68239161859851
H           -2.25195811285128       -2.40230472202043       -0.44327909394176
H            1.49721975604377       -3.14341956381299        0.22692147558610
