  25
        -42.16590372
 C          3.3887982174        1.2272115543       -0.0354139593
 N          2.8393275916       -0.0925257594       -0.0008912472
 C          3.3419575667       -1.3413871026        0.0039548105
 N          2.1186689979       -1.9246787060        0.0231562355
 C          1.5459226406       -0.6442926604        0.0218686947
 C          0.2709338042       -0.1877798726        0.0151084752
 C         -0.2053939825        1.2290749706        0.0067858597
 O          0.4199834999        2.2586929543       -0.0022393783
 N         -1.5839650536        1.0915851391        0.0043876117
 C         -2.5365367543        2.1715052928        0.0066578651
 C         -1.8692905587       -0.2459713726        0.0051799773
 O         -3.0947934763       -0.6644557178       -0.0099949202
 N         -0.8046893577       -1.0154327903        0.0137914531
 C         -3.2432680622       -2.0821550025       -0.0387876665
 H          3.9445330302        1.4325949910        0.8817808173
 H          4.0654156892        1.3311382316       -0.8852970004
 H          2.5754462075        1.9462805529       -0.1262177673
 H          4.3387403505       -1.7311050506       -0.0069966376
 H         -1.9801734128        3.1049038562       -0.0646349807
 H         -3.2132850409        2.0752427996       -0.8423414696
 H         -3.1186984732        2.1590306988        0.9288608032
 H         -2.7623190507       -2.5340185459        0.8294278257
 H         -2.7965539896       -2.4903110238       -0.9472512925
 H         -4.3132195631       -2.2707345110       -0.0261930067
 H          1.7545086965       -2.8592532323        0.0655598794
