25
 energy: 0.000000000000 xtb: 6.6.1 (8d0f1dd)
C            3.23720163006194        1.16630919979326        0.08434469647475
N            2.29877817382611        0.07527477071623        0.03981603040599
C            2.58028210190900       -1.21425402444508        0.03006176031096
N            1.43813958087363       -1.93419271955128        0.00098261760884
C            0.39035688448383       -1.05887472636071       -0.00790371836672
C            0.93510056364412        0.21347819449412        0.01709077491437
C            0.09450143893243        1.40504303904423       -0.00410947031874
O            0.49712751527797        2.54126714362870       -0.00342325688240
N           -1.25076640035757        1.06271879480407       -0.03085478223738
C           -2.21907211982101        2.15522099834493       -0.05001256985998
C           -1.81739487048744       -0.20012725993278       -0.04692818574614
O           -2.99983886758376       -0.37846417018721       -0.07008878229737
N           -0.92618586207120       -1.30210215599479       -0.03682761578324
C           -1.46982264913417       -2.64643102187190       -0.06029820460571
H            3.71247264356769        1.21471455160235        1.06488849150277
H            4.00791497605742        1.03430808813993       -0.67357694370751
H            2.69910007168542        2.09770118228144       -0.09130154882931
H            3.56654120610678       -1.63682992603973        0.04233140067262
H           -1.67107961066214        3.09322851271934       -0.02552706933167
H           -2.82428953597071        2.09428624779827       -0.95318082946668
H           -2.87644029173232        2.07745725625962        0.81450067533302
H           -1.17061996399332       -3.19584890659852        0.83242232437030
H           -1.14560257411436       -3.17511610292205       -0.95688275822323
H           -2.55549792440841       -2.55659984320617       -0.07459039797972
H            1.38130855184625       -2.94313852034425       -0.01389874181052
25
 energy: -1.966507898190 xtb: 6.6.1 (8d0f1dd)
C            3.23439379871367        1.17075365817945        0.08566673908012
N            2.31613861774650        0.08138756493680        0.03755296377906
C            2.65617314566690       -1.24229954784122        0.03129124621674
N            1.45683507436670       -1.94601149771721        0.00142308567347
C            0.40453884409583       -1.06734511395352       -0.00837814172013
C            0.93292902848364        0.21045883550938        0.01509777546570
C            0.09512863926767        1.38806175536578       -0.00476114272788
O            0.48966900440079        2.55436787039550       -0.00337510899113
N           -1.27011716296922        1.05293130585410       -0.03112178717912
C           -2.23163251140499        2.15351667388425       -0.04978373117270
C           -1.83156999391268       -0.19814626840950       -0.04775815645243
O           -3.02944409089000       -0.37737512077034       -0.07115365836505
N           -0.93764085615091       -1.30119692958579       -0.03736467668980
C           -1.49831393139859       -2.63501760141331       -0.06078199880523
H            3.70779489795226        1.21088008247708        1.06918065728886
H            3.99924229889030        1.02877810938808       -0.67777273105864
H            2.68328529013720        2.09219554509158       -0.09144962726373
H            3.73247468204544       -1.62537146616576        0.04756246281041
H           -1.67419924691995        3.08766408085522       -0.02519707741825
H           -2.84062235337077        2.10470244637998       -0.95267576445003
H           -2.89280274439012        2.08779380272564        0.81434762208458
H           -1.20304652024322       -3.18901182707356        0.83162020173587
H           -1.17783147134547       -3.16856288251696       -0.95705919229332
H           -2.58445641341263       -2.53579971154699       -0.07519723987559
H            1.37528864257783       -2.94832516187665       -0.01287882352450
25
 energy: 7.351595737963 xtb: 6.6.1 (8d0f1dd)
C            3.22816682138989        1.16885556514937        0.08623366650961
N            2.32520376786492        0.07664272077240        0.03313678363637
C            2.72938579991386       -1.26746823721080        0.03298790274374
N            1.48160958235885       -1.95565310280231        0.00267219738199
C            0.42166001538965       -1.08189503456770       -0.00876901389296
C            0.93021124835281        0.20162844261735        0.01263446522986
C            0.09662929983136        1.36540836913696       -0.00525519902183
O            0.47172839554716        2.54642413420281       -0.00329496343417
N           -1.28818896870901        1.04647186114176       -0.03133764020879
C           -2.24288430164076        2.15479649124659       -0.04942599619823
C           -1.83527807114506       -0.19647003461398       -0.04842197047689
O           -3.03809444133533       -0.38006637945276       -0.07235289559482
N           -0.94139815855831       -1.30076126703925       -0.03777223840290
C           -1.53138061517681       -2.62166303392164       -0.06141347925728
H            3.70301454128410        1.20923579281846        1.07033043352332
H            3.99151754840525        1.02830623056982       -0.68001467985024
H            2.66972513942004        2.08502290091676       -0.09014616116708
H            3.90322947313389       -1.58327425197738        0.05360205577008
H           -1.67858219127577        3.08572131504951       -0.02466387008437
H           -2.85652377417418        2.11533007337930       -0.95105064242490
H           -2.90850981889600        2.09818062911237        0.81336457313181
H           -1.25051853422936       -3.18431985405179        0.83091821562233
H           -1.22487011983661       -3.16414648208491       -0.95794412546410
H           -2.61748031016228       -2.50249259049007       -0.07595550520801
H            1.37384234018391       -2.95478565572885       -0.01102801671523
25
 energy: 14.089401837210 xtb: 6.6.1 (8d0f1dd)
C            3.22577255476322        1.16825662230829        0.08602973119829
N            2.32834242779569        0.07100263999489        0.03003890409377
C            2.75843778081890       -1.27655809986465        0.03390955634867
N            1.49408415711357       -1.95979733518031        0.00401354777662
C            0.42970587135023       -1.09167094097859       -0.00853613560808
C            0.93114254494244        0.19609734376713        0.01164842041390
C            0.09917120751481        1.35842108162761       -0.00528356188673
O            0.46293446033590        2.54042101953258       -0.00307677403267
N           -1.29363489191471        1.04680033068060       -0.03145925776084
C           -2.24774340667118        2.15511519673212       -0.04930625207438
C           -1.83362057450190       -0.19699987054577       -0.04877087664847
O           -3.03605391596077       -0.38433429347724       -0.07328181059840
N           -0.93945866593149       -1.30259933719480       -0.03770045612980
C           -1.54904656974712       -2.61625413404937       -0.06169874881974
H            3.70020524995677        1.21077236024388        1.07041765199201
H            3.98972725792318        1.03376445409983       -0.68072005370664
H            2.66421383686807        2.08319955481759       -0.08901271243144
H            3.98366649389549       -1.56149930926778        0.05544045919177
H           -1.68335551603254        3.08547616029541       -0.02440534044135
H           -2.86279383342613        2.11658646140771       -0.95030938018358
H           -2.91462471049633        2.09918396444948        0.81288279290651
H           -1.28034113731625       -3.18376656680869        0.83098471667428
H           -1.25415470958535       -3.16362094977439       -0.95884742167926
H           -2.63421434752285       -2.48013228284370       -0.07641145290339
H            1.37385310376454       -2.95883546779980       -0.00951164954378
25
 energy: 16.360646384823 xtb: 6.6.1 (8d0f1dd)
C            3.22518070688318        1.16768462951498        0.08593480453631
N            2.32828023303034        0.06853623918211        0.02860517077611
C            2.76123462756773       -1.27766512709053        0.03439991366542
N            1.49472596540969       -1.95978819930052        0.00449596772934
C            0.42975294691039       -1.09370531193847       -0.00836868556238
C            0.93161181299503        0.19523703196166        0.01140903099164
C            0.10069113605601        1.35958633559444       -0.00535546168278
O            0.46074085768340        2.53994763218906       -0.00286221297833
N           -1.29382687010802        1.04849805406159       -0.03151688992436
C           -2.24876326463128        2.15519175556430       -0.04931268785878
C           -1.83338879524649       -0.19670191604478       -0.04882351974675
O           -3.03521125409850       -0.38416836003753       -0.07353542400204
N           -0.93883501206092       -1.30318188295973       -0.03752821728024
C           -1.55195687098804       -2.61597379242423       -0.06167943501150
H            3.69859855141561        1.21043469387569        1.07059261957347
H            3.98924713883378        1.03519560942490       -0.68073981381131
H            2.66320124310929        2.08274457308158       -0.08880205036789
H            4.00706415189892       -1.55963898376521        0.05551688591471
H           -1.68563602687060        3.08597962529644       -0.02440516810705
H           -2.86382387771285        2.11566036674688       -0.95026999506545
H           -2.91557547401531        2.09819474165422        0.81288735646786
H           -1.28563988939807       -3.18367367558644        0.83093162066313
H           -1.25929402995917       -3.16346470220128       -0.95883492901297
H           -2.63647441716284       -2.47699146432496       -0.07645671979151
H            1.37031107839496       -2.95890927030218       -0.00924826396733
25
 energy: 18.487179772680 xtb: 6.6.1 (8d0f1dd)
C            3.22471152742458        1.16696287232435        0.08588061523955
N            2.32746503701689        0.06673635946365        0.02707384644361
C            2.75805280537419       -1.27673987548604        0.03531900368910
N            1.49273942001475       -1.95869454250234        0.00484531020777
C            0.42769582103214       -1.09375812136694       -0.00830200226870
C            0.93168247594925        0.19557804171565        0.01126181508663
C            0.10198853532577        1.36238820093108       -0.00551099114037
O            0.45901546392447        2.54121876147781       -0.00259148069378
N           -1.29334904204545        1.04983198261629       -0.03158558403767
C           -2.24912740063295        2.15505259362775       -0.04932851180274
C           -1.83409444815941       -0.19631146269023       -0.04881915620147
O           -3.03526554256397       -0.38322593112473       -0.07360142118983
N           -0.93869027148810       -1.30329612245650       -0.03733748998684
C           -1.55208165077225       -2.61656340657435       -0.06160907794923
H            3.69688417432427        1.20916842534708        1.07082725599538
H            3.98875954070458        1.03496706085074       -0.68047980621260
H            2.66290567937094        2.08230749006231       -0.08895129040829
H            4.02656997592490       -1.56348132838774        0.05527261940123
H           -1.68735385569225        3.08651410351576       -0.02442170398433
H           -2.86422329006502        2.11493597887955       -0.95026854646637
H           -2.91588071354233        2.09742391280598        0.81292757371819
H           -1.28584916872109       -3.18350526966791        0.83093771072144
H           -1.25945780699888       -3.16318469101424       -0.95876814022670
H           -2.63619233558897       -2.47751993341452       -0.07641002661456
H            1.36530973782016       -2.95777649676038       -0.00932662517214
25
 energy: 19.609542778389 xtb: 6.6.1 (8d0f1dd)
C            3.22454101880055        1.16680028563059        0.08588173028376
N            2.32684590353672        0.06682932467288        0.02637171681489
C            2.75337759180414       -1.27506435627594        0.03638181599366
N            1.49087329908572       -1.95788951505719        0.00487492685927
C            0.42580053109134       -1.09250283451256       -0.00842550779683
C            0.93116715829524        0.19645723522302        0.01124832249122
C            0.10203249925943        1.36373988186883       -0.00562507150239
O            0.45855441997851        2.54268137145419       -0.00250513844294
N           -1.29332651201417        1.04961715897249       -0.03162644969876
C           -2.24903809214972        2.15495535077669       -0.04933237024649
C           -1.83524224046863       -0.19610683964453       -0.04878824127868
O           -3.03622198774501       -0.38276457415497       -0.07348150035943
N           -0.93920577295246       -1.30298032451192       -0.03728967518906
C           -1.55109527267516       -2.61701601001528       -0.06157715471134
H            3.69626435276921        1.20838753644443        1.07093418149973
H            3.98866635847627        1.03396468018738       -0.68016065082702
H            2.66305922455797        2.08221393192508       -0.08922939275977
H            4.03563310957973       -1.56906128193636        0.05482511492072
H           -1.68741385127138        3.08663802637666       -0.02441175249960
H           -2.86418233639094        2.11517357337112       -0.95028618820494
H           -2.91581296616163        2.09764214791390        0.81296219771943
H           -1.28369843686655       -3.18348114679134        0.83098158429513
H           -1.25737098796910       -3.16309515287680       -0.95877421884525
H           -2.63534351000802       -2.47926356136025       -0.07635346037557
H            1.36335116737417       -2.95684630550809       -0.00956092199246
25
 energy: 20.141789615037 xtb: 6.6.1 (8d0f1dd)
C            3.22452554406222        1.16702013539009        0.08590491205097
N            2.32671070026114        0.06766955889903        0.02630057613818
C            2.75043080267744       -1.27395092827636        0.03749092057056
N            1.49019622669112       -1.95776166391340        0.00469491991298
C            0.42497281629242       -1.09150211944133       -0.00866783529799
C            0.93052243108119        0.19704757895371        0.01121942621782
C            0.10141457414438        1.36360590908548       -0.00570883199914
O            0.45887758243985        2.54323403949787       -0.00260209790994
N           -1.29381408393721        1.04900341414950       -0.03164998762254
C           -2.24905795490299        2.15510624556229       -0.04931543135078
C           -1.83610748768030       -0.19591292166311       -0.04877023999382
O           -3.03715780395023       -0.38274922305847       -0.07332684454603
N           -0.93994145937403       -1.30269776713893       -0.03735974681821
C           -1.55062366743924       -2.61706682889220       -0.06158614410963
H            3.69634253985021        1.20836652671541        1.07095955259900
H            3.98879301824343        1.03341358569579       -0.67997846877656
H            2.66313366300174        2.08233393624877       -0.08938938063659
H            4.03964455360854       -1.57306413978535        0.05432609291749
H           -1.68690161190204        3.08659991227971       -0.02438172421908
H           -2.86417974367721        2.11574905285577       -0.95029572361209
H           -2.91581012756483        2.09820582179809        0.81301037771880
H           -1.28237141380447       -3.18350438794295        0.83099354307197
H           -1.25612987086360       -3.16313313485680       -0.95879247661890
H           -2.63511593139281       -2.48032564031736       -0.07632052396585
H            1.36386137207147       -2.95665835967324       -0.00972096757334
25
 energy: 20.273794949040 xtb: 6.6.1 (8d0f1dd)
C            3.22456481372639        1.16721898082812        0.08592485870359
N            2.32682491003116        0.06821602437462        0.02652592739175
C            2.74971104236048       -1.27372939086160        0.03832471740312
N            1.49031260726068       -1.95795180987531        0.00446406266332
C            0.42500661453503       -1.09128537735963       -0.00889269434034
C            0.93016260183754        0.19714140176286        0.01113593696812
C            0.10086354235063        1.36308063336236       -0.00575838466061
O            0.45930996562256        2.54304038202192       -0.00272874615392
N           -1.29423813758569        1.04880332921091       -0.03165644518812
C           -2.24920732419578        2.15534763436790       -0.04929224757676
C           -1.83634625063625       -0.19575269746560       -0.04877192432746
O           -3.03749226450030       -0.38285685124425       -0.07323855287017
N           -0.94039675587572       -1.30263182035672       -0.03746376258276
C           -1.55069088114040       -2.61694581347584       -0.06160914569401
H            3.69660116894917        1.20864695305608        1.07094688231446
H            3.98889216573432        1.03340960516653       -0.67997869312219
H            2.66310278322169        2.08244689139800       -0.08940090222193
H            4.04067688112409       -1.57430574873450        0.05394135230901
H           -1.68661096855527        3.08658702010791       -0.02435898503224
H           -2.86426979965198        2.11608463727828       -0.95028279118828
H           -2.91589589017394        2.09853479526894        0.81304826539523
H           -1.28224680298561       -3.18348653222650        0.83097828043011
H           -1.25605700367346       -3.16317870429231       -0.95878957187168
H           -2.63528338829721       -2.48051641672921       -0.07631237007073
H            1.36492103845406       -2.95688852341097       -0.00972117053018
