25
 energy: -42.497038604487 xtb: 6.6.1 (8d0f1dd)
C            3.17375688047890        1.12225393660671        0.08803839948390
N            2.21926804573715        0.04446331573074        0.05716073356685
C            2.53308092073544       -1.25640485172344        0.09639745225298
N            1.33768633086331       -1.92372059012683        0.01998052202301
C            0.29881713069593       -1.04530390584725       -0.02420389921853
C            0.84681421994636        0.21844385535889        0.00310800877210
C            0.03136154083135        1.39762362548994       -0.00984972068778
O            0.41839639119921        2.54968729396155       -0.00401970155520
N           -1.33295835496985        1.07701916204898       -0.03347484455790
C           -2.28000651358062        2.18363405887434       -0.05058918104831
C           -1.90380240921863       -0.18044734571811       -0.05024972577829
O           -3.10403980310517       -0.33597790891063       -0.06739415070528
N           -1.04233145299856       -1.27269576305282       -0.04885530599374
C           -1.59264432982188       -2.61341956317344       -0.06505329946253
H            3.66134305974697        1.16062074001002        1.06189111286890
H            3.93657907548458        0.96257671758485       -0.67347639057724
H            2.65682961406544        2.06280123812254       -0.09438784656539
H            5.54539166796364       -1.73099000798522       -0.05201768761868
H           -1.71032871027680        3.11015309793672       -0.02562953269234
H           -2.88703930705068        2.13774267618403       -0.95431715394281
H           -2.94014095097401        2.12131721375645        0.81381037552039
H           -1.28709393025247       -3.16064624035391        0.82807168174775
H           -1.26449964313098       -3.14960468453766       -0.95721360380373
H           -2.67786715927662       -2.52045901534798       -0.07621253226109
H            1.28472425364809       -2.92823238320526       -0.00683089577003
