25
 energy: -42.484032897942 xtb: 6.6.1 (8d0f1dd)
C            3.22383549559818        0.88516655481532       -0.13516217584383
N            2.32140251653261       -0.06534242054677       -0.12446878758192
C            2.53658471437284       -1.40169407615737       -0.09125558177852
N            1.32126813742381       -2.08115985381481       -0.11901631159635
C            0.34720829235039       -1.15799937898444       -0.10354279723780
C            0.92931839387693        0.10327617540069       -0.10827102403586
C            0.14532973304581        1.29706419229400       -0.04337523577483
O            0.54408010433925        2.44027346009538       -0.01364529032314
N           -1.24055128456286        1.00730643487498       -0.01088042243003
C           -2.16232710773643        2.13599779633355        0.02060329324662
C           -1.83664274560955       -0.22792683732503       -0.03371821380948
O           -3.03809941275070       -0.36845014889967       -0.02718238034116
N           -0.99782658959132       -1.34394104695251       -0.05731787978076
C           -1.57448809034313       -2.66983647282508       -0.07468830643734
H            3.86804933241149        3.49933172733190        1.25523424205270
H            4.25899879463378        0.65714640406483        0.04859541811242
H            2.90530506237650        1.90328563368844       -0.19644827402238
H            3.49188738688612       -1.85995071077116       -0.19642047699464
H           -1.57234701458166        3.04862652372937        0.06304047017043
H           -2.78614296350752        2.12763172153995       -0.87401417695718
H           -2.80572824936300        2.06100663784044        0.89678584295124
H           -1.26573868277897       -3.23476741094894        0.80723189451362
H           -1.27739022119667       -3.20936914799171       -0.97719065405711
H           -2.65708019614442       -2.54987816402545       -0.06188548279667
H            1.23176664536580       -3.08181784638917       -0.12152365695022
