25
 energy: 0.000000000000 xtb: 6.6.1 (8d0f1dd)
C            3.23720163006194        1.16630919979326        0.08434469647475
N            2.29877817382611        0.07527477071623        0.03981603040599
C            2.58028210190900       -1.21425402444508        0.03006176031096
N            1.43813958087363       -1.93419271955128        0.00098261760884
C            0.39035688448383       -1.05887472636071       -0.00790371836672
C            0.93510056364412        0.21347819449412        0.01709077491437
C            0.09450143893243        1.40504303904423       -0.00410947031874
O            0.49712751527797        2.54126714362870       -0.00342325688240
N           -1.25076640035757        1.06271879480407       -0.03085478223738
C           -2.21907211982101        2.15522099834493       -0.05001256985998
C           -1.81739487048744       -0.20012725993278       -0.04692818574614
O           -2.99983886758376       -0.37846417018721       -0.07008878229737
N           -0.92618586207120       -1.30210215599479       -0.03682761578324
C           -1.46982264913417       -2.64643102187190       -0.06029820460571
H            3.71247264356769        1.21471455160235        1.06488849150277
H            4.00791497605742        1.03430808813993       -0.67357694370751
H            2.69910007168542        2.09770118228144       -0.09130154882931
H            3.56654120610678       -1.63682992603973        0.04233140067262
H           -1.67107961066214        3.09322851271934       -0.02552706933167
H           -2.82428953597071        2.09428624779827       -0.95318082946668
H           -2.87644029173232        2.07745725625962        0.81450067533302
H           -1.17061996399332       -3.19584890659852        0.83242232437030
H           -1.14560257411436       -3.17511610292205       -0.95688275822323
H           -2.55549792440841       -2.55659984320617       -0.07459039797972
H            1.38130855184625       -2.94313852034425       -0.01389874181052
25
 energy: -3.839558331196 xtb: 6.6.1 (8d0f1dd)
C            3.24605893951915        1.18300700497652        0.10115150258399
N            2.31386087779847        0.08375755759995        0.04890829486526
C            2.59704603025149       -1.24838042955765        0.02385040394680
N            1.42211527577482       -1.95395313810777       -0.01491788210407
C            0.39367948337633       -1.06753689656429       -0.01899535728697
C            0.93410116875374        0.20908538505472        0.00658059251764
C            0.10855333919899        1.38427358067191       -0.01209565089227
O            0.51021101739553        2.54769841708774       -0.00682922019781
N           -1.25489337737135        1.04567132712549       -0.03126103056266
C           -2.21115017337323        2.14600822868837       -0.04019994918335
C           -1.82322369844323       -0.20329576422863       -0.04673893051067
O           -3.02057675103400       -0.38032232280428       -0.06250301182692
N           -0.93868634320134       -1.30769593395386       -0.04310346969092
C           -1.48549141647684       -2.64704557280837       -0.06211642473043
H            3.69991175701137        1.43512885501315        1.09423122899099
H            4.05463508216810        1.00126775022389       -0.60845747047380
H            2.69756071541193        2.08573230292668       -0.15332486550511
H            3.57108102986430       -1.68270117800268        0.01701174088404
H           -1.64830898195614        3.07657032676808       -0.01310452438653
H           -2.82050161046015        2.09867746908953       -0.94223443229050
H           -2.86580999360302        2.07325047214994        0.82761002474058
H           -1.18275781696753       -3.19985718228622        0.82928693231501
H           -1.16557610733775       -3.18118658034134       -0.95883234935856
H           -2.57063616477172       -2.55090177770692       -0.07149359019663
H            1.35101238640833       -2.95822329884197       -0.03538866549983
25
 energy: 4.162316874516 xtb: 6.6.1 (8d0f1dd)
C            3.25173861012595        1.20463767231327        0.12192139990753
N            2.33563314809689        0.08820416109366        0.07258270242323
C            2.61165501155488       -1.28750394662206        0.01624034147454
N            1.40288865887047       -1.97222447996563       -0.04063292851344
C            0.39811444535653       -1.07881016861235       -0.03661872115496
C            0.93634492778291        0.20144931763761        0.00047755015440
C            0.12977232741467        1.35197884761282       -0.01864848517685
O            0.51736637088669        2.53525855419976       -0.01326743946281
N           -1.25837987126185        1.02545810177434       -0.03034608159498
C           -2.19697346966732        2.13691863898449       -0.02464306313427
C           -1.82299714031854       -0.20738353795781       -0.04440429707684
O           -3.02916675351469       -0.38332186584618       -0.04920942903743
N           -0.95133633814895       -1.31371246561937       -0.05411081599974
C           -1.50609569147632       -2.64733823424926       -0.06533946662179
H            3.64413880746866        1.75625523873798        1.13097519371505
H            4.13606640394016        0.93597239685710       -0.48463771337542
H            2.69584996924476        2.06571772305959       -0.27730873044713
H            3.56903166105843       -1.74162913780417       -0.03171105799770
H           -1.61542242682048        3.05728343194068        0.00710754026868
H           -2.81315036644232        2.10763525340740       -0.92371793796569
H           -2.84768251194373        2.06746591524343        0.84706830780629
H           -1.20241659582492       -3.20584809479301        0.82431524755800
H           -1.19870134147781       -3.19152800861062       -0.96230899619302
H           -2.59100109213243       -2.54187240067505       -0.06613134994314
H            1.31693792516469       -2.97403430993460       -0.07061787346519
25
 energy: 14.353178403995 xtb: 6.6.1 (8d0f1dd)
C            3.24935239121393        1.22846701416220        0.13803182461468
N            2.34829667206378        0.09012828494585        0.09446377284597
C            2.61563645530052       -1.30622017126986        0.01395291888369
N            1.39629210663576       -1.98216507523602       -0.06269222283986
C            0.39961160095837       -1.08962647878596       -0.05039132648607
C            0.94013224709292        0.19243906823939        0.00213882519190
C            0.14154399303819        1.33553504199465       -0.02264413725188
O            0.51654224061777        2.52279412493505       -0.02590404191728
N           -1.25855981021767        1.01470215143384       -0.03129671588303
C           -2.18458201647162        2.13218789128242       -0.01284126172546
C           -1.82177294216201       -0.21385073682012       -0.04198862825516
O           -3.02982446039345       -0.38945158821482       -0.03696348153208
N           -0.95618123240781       -1.32121082419132       -0.06424464321944
C           -1.52305433207562       -2.65038854716581       -0.06567884347815
H            3.57594770667575        1.97658887055529        1.13910287444596
H            4.20408255520903        0.89243649531557       -0.34788074036485
H            2.71794769324995        2.04794264572893       -0.39100901965729
H            3.56287843123705       -1.77921663029323       -0.08363925277629
H           -1.58867653521473        3.04331993264186        0.02258918139639
H           -2.80560436641715        2.11550628780552       -0.90884000026674
H           -2.82995679048757        2.06195755381657        0.86276298682816
H           -1.22150966529783       -3.21046519911861        0.82410023405397
H           -1.23199381146919       -3.20439720874859       -0.96255442780035
H           -2.60784737115164       -2.53331029548491       -0.05767585842960
H            1.30351390840962       -2.98467400535590       -0.10386412022983
25
 energy: 18.981484643453 xtb: 6.6.1 (8d0f1dd)
C            3.24685310943208        1.24200844058766        0.14745250394997
N            2.35240338281225        0.09004228154515        0.10876069392224
C            2.61302722170636       -1.30925233956819        0.01599318251337
N            1.39794351878016       -1.98516169047413       -0.07698008171068
C            0.39816459447369       -1.09720622631852       -0.05844148398958
C            0.94321424311548        0.18416807797867        0.00903075715447
C            0.14535309552130        1.33097309825830       -0.02561834546140
O            0.51253379793852        2.51182102791362       -0.04021286193317
N           -1.25674728667582        1.01048498636011       -0.03525356581371
C           -2.17665390342604        2.12994601892736       -0.00823790640609
C           -1.82099118690091       -0.22021071943849       -0.04126775864413
O           -3.02678648648610       -0.39441336174784       -0.02864025655883
N           -0.95644773196113       -1.32791543696176       -0.07213035183526
C           -1.53455954486758       -2.65447359475554       -0.06330496680317
H            3.53224691753595        2.09461989429623        1.12143109964832
H            4.22806061846964        0.88592583293609       -0.24218813918097
H            2.76201393257009        2.02374356624110       -0.44393742687558
H            3.55288797428284       -1.79444210819083       -0.13091413311719
H           -1.57349399752723        3.03539079576617        0.02910326025884
H           -2.80033455795810        2.12084340055212       -0.90180633173605
H           -2.81799910506053        2.05787158505481        0.86985305737424
H           -1.23587988363875       -3.21278760311349        0.82796529042906
H           -1.25770724881311       -3.21658621790358       -0.95904827898817
H           -2.61901275098807       -2.52714395998643       -0.04891273886112
H            1.30412594560141       -2.98921714578654       -0.12566132118806
25
 energy: 18.729008317338 xtb: 6.6.1 (8d0f1dd)
C            3.24692249921102        1.24453268927920        0.15242238071638
N            2.34984682662345        0.09021974741218        0.11534304831959
C            2.60808670935880       -1.29938131259854        0.02840363501015
N            1.40492949826423       -1.98088934018356       -0.08556695929864
C            0.39514940905288       -1.09870569669268       -0.06382816081224
C            0.94458568887179        0.18006474002118        0.01429651597877
C            0.14424676015363        1.33524385446183       -0.02775799458916
O            0.50956644527627        2.50642903285723       -0.04753626128537
N           -1.25357329445320        1.01081374316753       -0.03824007421479
C           -2.17478631739311        2.12887965238594       -0.00268800377977
C           -1.82105012420905       -0.22417258351032       -0.04111400638046
O           -3.02360971550479       -0.39529974571285       -0.02070463298469
N           -0.95382186971027       -1.33128785065781       -0.07951157459373
C           -1.53782993063648       -2.65742851650209       -0.06334299279753
H            3.48381656064070        2.14351398355251        1.09880148762274
H            4.23735168234677        0.87002110987789       -0.14576398829219
H            2.81467506886877        1.98750512593587       -0.51013735728706
H            3.54119919535383       -1.78610672909462       -0.16424118892340
H           -1.57312860668752        3.03405847710717        0.03604702960744
H           -2.80072620030815        2.12444515493731       -0.89408695557446
H           -2.81331176092510        2.05296757880160        0.87688000916692
H           -1.23899739695410       -3.21333003579841        0.82851132013211
H           -1.26945484558924       -3.22204763299514       -0.95845432144484
H           -2.62168052847224       -2.52493979320348       -0.04476294762704
H            1.31380891475749       -2.98607705067591       -0.13593411052134
25
 energy: 14.619240273717 xtb: 6.6.1 (8d0f1dd)
C            3.24810902557590        1.24363637552069        0.15189426542543
N            2.34253524376488        0.09438046885694        0.11443387166766
C            2.60451391447694       -1.28351062520312        0.04385321628819
N            1.41076384001226       -1.97177748721202       -0.08954125537351
C            0.39219249649635       -1.09419431079642       -0.06696463876325
C            0.94199126739292        0.18263030401192        0.01577752631933
C            0.13930888931404        1.34185790229019       -0.02776794731485
O            0.50663571787653        2.50843318092978       -0.04943699818603
N           -1.25253992258798        1.01187815532700       -0.03856715014934
C           -2.17836877659892        2.12748222275266        0.00127383088960
C           -1.82228570424266       -0.22558774957370       -0.03993850698616
O           -3.02261836906612       -0.39441122143168       -0.01371027920758
N           -0.95165707094129       -1.33100441494650       -0.08414745877848
C           -1.53481469784280       -2.65853437390085       -0.06424587200170
H            3.43596298273348        2.13014334268886        1.06982217376142
H            4.24531098406099        0.84525581300143       -0.06721866720464
H            2.87258868282629        1.95762844165157       -0.56434286404524
H            3.53344027625048       -1.76329786838449       -0.18771519716890
H           -1.58112668966077        3.03551708947590        0.04073609444323
H           -2.80564557904000        2.12382285329012       -0.88901821789061
H           -2.81538270602731        2.04796662197919        0.88153967745964
H           -1.23286474713362       -3.21236892598024        0.82742931056731
H           -1.26829734711910       -3.22260798013464       -0.95920862975743
H           -2.61830213957270       -2.52681043533536       -0.04302832195026
H            1.32276509698866       -2.97749877670523       -0.13487406589645
25
 energy: 9.012450202430 xtb: 6.6.1 (8d0f1dd)
C            3.25104677973849        1.24428150169461        0.15509158012780
N            2.33558642925185        0.10089334547864        0.11792970807203
C            2.60533199555000       -1.27085947631566        0.06253098859677
N            1.41425454066197       -1.96333737967930       -0.09106980516202
C            0.39191690782354       -1.08783208540618       -0.06831455928514
C            0.93838613718230        0.18884869509141        0.01711236911036
C            0.13376254279374        1.34725795581054       -0.02606611365831
O            0.50463353648055        2.51452483590545       -0.04558354033819
N           -1.25370560793765        1.01309821652814       -0.03701402878918
C           -2.18383702450904        2.12658870482768        0.00362752038197
C           -1.82301268839005       -0.22501104508642       -0.03876316918905
O           -3.02277746394619       -0.39400172660228       -0.00893397585111
N           -0.94985386177057       -1.32877171252767       -0.08713547572135
C           -1.52934077241856       -2.65791695201185       -0.06600459134770
H            3.39411910358919        2.09278849775357        1.03884094260155
H            4.24074194400891        0.82318225498120       -0.00847964938062
H            2.92571876067466        1.93208009015886       -0.61472610089444
H            3.53138439488370       -1.73989862011221       -0.20782367934134
H           -1.58986255233756        3.03743394754484        0.04330424659403
H           -2.81131486463346        2.12125866871798       -0.88657937260695
H           -2.82029918504342        2.04464284005414        0.88403361671251
H           -1.22405683432324       -3.21072387620470        0.82531894939485
H           -1.26133036617604       -3.22114158469534       -0.96109089988580
H           -2.61287926280711       -2.52921878468702       -0.04326095156954
H            1.32760207959043       -2.96913770904641       -0.12991011242373
25
 energy: 7.323438227962 xtb: 6.6.1 (8d0f1dd)
C            3.25382224171439        1.24508825639369        0.15385613393264
N            2.33302461293308        0.10423029055656        0.11917927719615
C            2.60845211964552       -1.27073101085846        0.07155969540496
N            1.41334876024649       -1.96187891625702       -0.09137307679947
C            0.39360140243956       -1.08534405358582       -0.06945966868405
C            0.93630538085981        0.19250752998171        0.01507949985009
C            0.13150746978875        1.34782355804533       -0.02468973393911
O            0.50365221246501        2.51797734735381       -0.04029760016270
N           -1.25620528956299        1.01382125681053       -0.03501668625543
C           -2.18702082432971        2.12695013060309        0.00518072640577
C           -1.82287867179053       -0.22361379479803       -0.03795355804499
O           -3.02361873497833       -0.39479039541120       -0.00757207896413
N           -0.94960218868371       -1.32700019892873       -0.08800095945136
C           -1.52622392938608       -2.65665244872661       -0.06719698599435
H            3.36611722693181        2.08903639437973        1.02247180333495
H            4.24849967998597        0.80993751293402        0.01563568434398
H            2.94787519459681        1.91692242746897       -0.63276193530903
H            3.53219697998371       -1.73186349543813       -0.21859248077049
H           -1.59324868490323        3.03829501124448        0.04465859634711
H           -2.81442980544089        2.12021984632522       -0.88519630505416
H           -2.82332698182323        2.04461741091414        0.88565913043414
H           -1.21916827134609       -3.20967982055615        0.82374195074898
H           -1.25649502606325       -3.21941537398316       -0.96261966449309
H           -2.61000678817065       -2.53013197669262       -0.04400755056772
H            1.32603658282426       -2.96729688560335       -0.12525031736126
25
 energy: 7.033689576760 xtb: 6.6.1 (8d0f1dd)
C            3.25624067720502        1.24381678844088        0.15650027868025
N            2.33240014544919        0.10370909318675        0.12510801643514
C            2.61185732275882       -1.27646268057282        0.07978161016816
N            1.41119631453117       -1.96406760526874       -0.08889657913908
C            0.39591142645042       -1.08530544929836       -0.06834082097899
C            0.93605171652517        0.19356345348793        0.01530835724706
C            0.13118358145590        1.34661175670474       -0.02192726270141
O            0.50437294528963        2.51879328825179       -0.03272533394048
N           -1.25777825591124        1.01485465927727       -0.03323787999639
C           -2.18803651723543        2.12822594792330        0.00512283208460
C           -1.82182914901813       -0.22191247339242       -0.03806498397532
O           -3.02356042053276       -0.39562768220656       -0.01045491022167
N           -0.94937172580429       -1.32557929527371       -0.08764910683014
C           -1.52438104460543       -2.65514420218234       -0.06900834142672
H            3.35916821092651        2.09542159390572        1.01130651903215
H            4.23987866649411        0.81369239379156        0.01211214923993
H            2.95403895013001        1.90443042109799       -0.63707775738633
H            3.53379089050086       -1.73031920623431       -0.22443152563247
H           -1.59350001923484        3.03916742742202        0.04454520036736
H           -2.81479185324372        2.12016758486873       -0.88582214754225
H           -2.82498157937516        2.04644163981157        0.88518252110923
H           -1.21742476476464       -3.20905824737691        0.82167956804553
H           -1.25245992232715       -3.21722745027280       -0.96471534918305
H           -2.60842823928680       -2.53006386057082       -0.04680953360254
H            1.32266731155923       -2.96909929334848       -0.12045162370514
25
 energy: 7.518109039616 xtb: 6.6.1 (8d0f1dd)
C            3.25577397475186        1.24412298964284        0.15813883352345
N            2.33182896717499        0.10309868130157        0.12717317517232
C            2.61276189676205       -1.28030505888751        0.08366658990406
N            1.40987187643683       -1.96603637376496       -0.08761360098423
C            0.39654404337999       -1.08631819373112       -0.06824293209175
C            0.93607623569215        0.19297088675524        0.01380849235420
C            0.13110252440662        1.34598121063457       -0.02074767014596
O            0.50435410187545        2.51833757040405       -0.02880048247356
N           -1.25852704557103        1.01543399696778       -0.03226656420878
C           -2.18808497373332        2.12895262248865        0.00640528170186
C           -1.82163124540505       -0.22147828871044       -0.03822544133689
O           -3.02384962713377       -0.39642010169527       -0.01227311963193
N           -0.94953440487175       -1.32536488440197       -0.08740521640810
C           -1.52425745220109       -2.65482131337152       -0.07004724642549
H            3.35451697832128        2.10839284159139        1.01078067445808
H            4.24705608031448        0.81053912843068        0.01512133254639
H            2.95352474410617        1.90162084112489       -0.64916070486556
H            3.53379236159624       -1.73055740650877       -0.22789273808400
H           -1.59295887455836        3.03933682762751        0.04593668906815
H           -2.81488086487640        2.12091789784217       -0.88453598632365
H           -2.82495314367072        2.04733337695684        0.88656961547752
H           -1.21754432120089       -3.20938711798386        0.82034811504886
H           -1.25172003219021       -3.21615272376902       -0.96611204625152
H           -2.60841277943405       -2.53018642972879       -0.04834530242811
H            1.32136564796502       -2.97098237704295       -0.11924585144797
25
 energy: 7.522191034155 xtb: 6.6.1 (8d0f1dd)
C            3.25399702810183        1.24496371842844        0.15761862988683
N            2.33152154497313        0.10253094097239        0.12604882454844
C            2.61219009190404       -1.28084443718895        0.08338880237924
N            1.40994134931888       -1.96657506590710       -0.08646634323068
C            0.39621193371605       -1.08704244067587       -0.06780160972871
C            0.93656397279681        0.19197582217580        0.01302070761943
C            0.13111793368160        1.34596551181299       -0.02094696483342
O            0.50438651278774        2.51717202364144       -0.02938794714757
N           -1.25800333806996        1.01557651315581       -0.03287917754330
C           -2.18732595285679        2.12910679113841        0.00541749158743
C           -1.82166986734287       -0.22177546606823       -0.03872772143277
O           -3.02364550526747       -0.39654927651425       -0.01370059322305
N           -0.94948364884846       -1.32562295412454       -0.08654770945448
C           -1.52489104677713       -2.65505194776958       -0.06921474412153
H            3.36154792619574        2.10314799198074        1.01043400897237
H            4.24871251798438        0.81632483215780        0.00686617531803
H            2.94636501455643        1.90558563867963       -0.63632217666153
H            3.53331942016959       -1.73031100790064       -0.22815480202646
H           -1.59198346747689        3.03921461012400        0.04468783789094
H           -2.81407554114230        2.12097302020127       -0.88551036461031
H           -2.82425263849081        2.04802963015027        0.88560072645706
H           -1.21882281463781       -3.20945593157841        0.82137891135952
H           -1.25252731199597       -3.21646864668345       -0.96516214623502
H           -2.60904990175363       -2.53014357662705       -0.04793101487018
H            1.32207045641031       -2.97169769140889       -0.11867490475287
25
 energy: 7.290768801269 xtb: 6.6.1 (8d0f1dd)
C            3.25359800050233        1.24521377732502        0.15927791852716
N            2.33146902560694        0.10223307525756        0.12809423999383
C            2.61217405897813       -1.28089850590777        0.08719584163165
N            1.41028607230382       -1.96653508894616       -0.08559960618197
C            0.39612319322302       -1.08711217015861       -0.06764721763011
C            0.93722255142562        0.19152764199484        0.01350871143759
C            0.13124027421567        1.34606952991392       -0.02070328086072
O            0.50479197476972        2.51668095392220       -0.02926635536355
N           -1.25725519323145        1.01560150348505       -0.03316776314203
C           -2.18680533082437        2.12904239174710        0.00514125863302
C           -1.82156281375792       -0.22192430004689       -0.03917611655253
O           -3.02338863735199       -0.39622213489343       -0.01445234499549
N           -0.94919736543222       -1.32558605521413       -0.08656080666510
C           -1.52505310795634       -2.65507424127387       -0.06931994074133
H            3.36316094826721        2.10056004047042        1.01027936072391
H            4.24608202115165        0.81849240828101        0.00270910433151
H            2.94425115030094        1.90522686020280       -0.63584710156109
H            3.53271807504606       -1.72895564243674       -0.23071651070173
H           -1.59176095562347        3.03931734362783        0.04443734532023
H           -2.81363903266425        2.12099754320483       -0.88572928809038
H           -2.82378691266531        2.04802228414069        0.88530233870938
H           -1.21928771515372       -3.20940413768541        0.82135547937443
H           -1.25280019351191       -3.21652265169198       -0.96520372088129
H           -2.60920759037455       -2.52998208513506       -0.04816767997845
H            1.32284217069283       -2.97173973801118       -0.11870996918953
25
 energy: 7.246866477637 xtb: 6.6.1 (8d0f1dd)
C            3.25318342203156        1.24539582978154        0.16097234412996
N            2.33167292944395        0.10156203669142        0.13087038516841
C            2.61254309986300       -1.28204752131309        0.09359698095868
N            1.41038154371022       -1.96689606266980       -0.08459977392227
C            0.39620221373395       -1.08728626355096       -0.06809128620033
C            0.93826410566464        0.19082540250841        0.01358961843409
C            0.13165553880295        1.34578294127235       -0.02047758207165
O            0.50546874066661        2.51595267715273       -0.02913315357488
N           -1.25625134055032        1.01553877985553       -0.03343133986558
C           -2.18597927827602        2.12896820211239        0.00505246358564
C           -1.82129481613595       -0.22205268396076       -0.03968738406014
O           -3.02307517715245       -0.39566199493715       -0.01518025839222
N           -0.94885788390594       -1.32545742826648       -0.08685350295683
C           -1.52527030741404       -2.65497892360975       -0.06966460974408
H            3.36326460201135        2.10133865212069        1.01045133512191
H            4.24523044823876        0.82046545690459       -0.00327907030941
H            2.94028127688524        1.90388233073063       -0.63476128074498
H            3.53115118599972       -1.72730291529196       -0.23492838771373
H           -1.59129916037138        3.03947001725851        0.04437788277024
H           -2.81300764793883        2.12103210906796       -0.88568858515582
H           -2.82295276249236        2.04793978617855        0.88524166250148
H           -1.21974168589841       -3.20924289372853        0.82107562943124
H           -1.25322839085321       -3.21650888443510       -0.96549038128168
H           -2.60941104536856       -2.52956750855867       -0.04853764054415
H            1.32328505724198       -2.97212253914104       -0.11839016941650
25
 energy: 7.214576719785 xtb: 6.6.1 (8d0f1dd)
C            3.25283765002571        1.24547288852496        0.16207779940372
N            2.33199293271460        0.10101673632072        0.13291980349821
C            2.61294865784708       -1.28291291488135        0.09971479597215
N            1.41041211707622       -1.96699864853221       -0.08422150454009
C            0.39627734082920       -1.08711792842913       -0.06907601914542
C            0.93900507224406        0.19048641085190        0.01371462621411
C            0.13200702706470        1.34550222088420       -0.02078139770926
O            0.50591068549668        2.51564457257114       -0.03021913274912
N           -1.25541739471513        1.01533714898082       -0.03377118199405
C           -2.18539722833369        2.12874089253048        0.00503901532822
C           -1.82103076265338       -0.22224467104362       -0.03987376222553
O           -3.02280422901124       -0.39501002011249       -0.01466829864177
N           -0.94854920901224       -1.32536663163369       -0.08762136051061
C           -1.52530782101147       -2.65490563411335       -0.07001553526914
H            3.36279506426417        2.10195677651459        1.01105656855139
H            4.24569747009777        0.82106979131198       -0.00645541220514
H            2.93745638383083        1.90337962039360       -0.63371416755244
H            3.52870030815073       -1.72578746094321       -0.23997055272824
H           -1.59106806849054        3.03952398438690        0.04438720558603
H           -2.81254230961666        2.12079094519499       -0.88559593422796
H           -2.82224639637716        2.04735698017294        0.88528889781317
H           -1.21964023666623       -3.20896372525118        0.82078587610782
H           -1.25363290706894       -3.21668588965927       -0.96571762937968
H           -2.60937908112724       -2.52908824658028       -0.04856138117833
H            1.32318960237862       -2.97216859528745       -0.11768742227063
25
 energy: 7.211326975359 xtb: 6.6.1 (8d0f1dd)
C            3.25292379426143        1.24523439769604        0.16183043957247
N            2.33211434380313        0.10097997654444        0.13251837007282
C            2.61315677367832       -1.28295165849695        0.10019233848512
N            1.41035981641966       -1.96689219323224       -0.08441715183370
C            0.39638717321445       -1.08688464520335       -0.06925855335794
C            0.93889113361568        0.19071554223118        0.01386582740781
C            0.13198782475313        1.34551251334387       -0.02115590707546
O            0.50577161334802        2.51585589924343       -0.03108566477256
N           -1.25548086345082        1.01532125732048       -0.03387508917466
C           -2.18554717139697        2.12869392110036        0.00498169667383
C           -1.82090377417029       -0.22227514671582       -0.03967015963185
O           -3.02269620819170       -0.39499035355442       -0.01386447367924
N           -0.94846949318101       -1.32536711734342       -0.08795231192057
C           -1.52511589757723       -2.65487699933231       -0.07004893064028
H            3.36270870786073        2.10166156927066        1.01155805776860
H            4.24598074541771        0.82058069098650       -0.00495288745097
H            2.93788374482321        1.90386708921822       -0.63327639585427
H            3.52778761248354       -1.72569341728740       -0.24203080814469
H           -1.59122627432365        3.03948939660636        0.04436589496834
H           -2.81261030872850        2.12066288514670       -0.88569860117448
H           -2.82237569747718        2.04707585640327        0.88519737943856
H           -1.21927646299132       -3.20885461751545        0.82077067137875
H           -1.25351051979464       -3.21678567977193       -0.96568299782938
H           -2.60915386289818       -2.52903524331301       -0.04843127226754
H            1.32262791843893       -2.97201532117320       -0.11684557481132
