25
 energy: -42.126491737666 gnorm: 0.004232115025 xtb: 6.6.1 (8d0f1dd)
C            3.15927762932955        1.09684240343110        0.01745345183126
N            2.19473848245774        0.03441195524091       -0.00049822013966
C            2.47668976960845       -1.27355505539545       -0.00828249668418
N            1.29968539415368       -1.94629747971971       -0.00726647280866
C            0.26195639312631       -1.06140006263372        0.00068667265850
C            0.82895967171220        0.20811254972772        0.00596703228936
C            0.01521335757431        1.39740655200901       -0.00204232104290
O            0.41873976300114        2.54097560169568       -0.01423551866358
N           -1.34979215853685        1.08769199644452        0.00161517202075
C           -2.28680251457036        2.19746323790083       -0.00148585503195
C           -1.93064003399838       -0.17129141839058        0.00400055336500
O           -3.12546934910079       -0.31913207673367        0.00695675399661
N           -1.06850570004473       -1.27675252971893        0.00129394870757
C           -1.63022242106761       -2.61042312246113       -0.00213412315462
H            3.66377512873749        1.13172275800629        0.98567812466379
H            3.91056573888944        0.92915517427549       -0.75478299584634
H            2.65251899918017        2.04657320848414       -0.15362911879903
H            5.34269413696878       -1.83245056882430       -0.01864124819890
H           -1.71595548043491        3.12525893715909        0.00596924858937
H           -2.91953606487789        2.15101843924505       -0.88988904215975
H           -2.93293334051050        2.14354530046368        0.87668228729889
H           -1.31170297278365       -3.16057011779890        0.88499141548718
H           -1.32515581515519       -3.15054669337130       -0.90018033596871
H           -2.71632506771802       -2.51407347449511        0.00632888879534
H            1.24865796815961       -2.95544697294069       -0.01338418330534
