  25
        -42.16114869
 C          3.5916262620        0.7555621888        0.2390291742
 N          2.5383392371       -0.2135292145        0.1162055868
 C          2.6710258753       -1.5343881650        0.0528354934
 N          1.4490958155       -2.1188962786       -0.0351350206
 C          0.5149228006       -1.1327200262       -0.0219836380
 C          1.1941835520        0.0876209030        0.0732388220
 C          0.5184915011        1.3152905774        0.1466977030
 O         -2.5217952863        2.6084485190       -0.7105940804
 N         -0.8101093294        1.1808110231        0.1279830907
 C         -1.6095899083        2.4216370307        0.2968506216
 C         -1.5678969944        0.0024688081        0.0431735663
 O         -2.7611587477       -0.0215978545        0.0699589382
 N         -0.8221456681       -1.1976338563       -0.0710812496
 C         -1.5349041337       -2.4564068884       -0.1648790364
 H          4.0809704363        0.6659720705        1.2098826565
 H          4.3361827485        0.6114103795       -0.5434605799
 H          3.1522027890        1.7469645238        0.1509588574
 H          3.5994481400       -2.0688979822        0.0729557603
 H         -2.1086130924        2.9306740340       -1.5247749610
 H         -2.1807651877        2.3220811977        1.2300098161
 H         -0.8710952501        3.2269303094        0.3893695500
 H         -1.3455001084       -3.0698232448        0.7169253361
 H         -1.2383500638       -2.9927389440       -1.0665575630
 H         -2.5988942802       -2.2280981417       -0.2166839528
 H          1.2868233075       -3.1146424754       -0.0906780233
