25
 energy: 3.514815444594 xtb: 6.6.1 (8d0f1dd)
C            3.43359652077322        1.10050598307080        0.10267517018292
N            2.34633186489616        0.15894564792897        0.00290509053359
C            2.56308294232940       -1.22533945667363        0.00051848462189
N            1.33792043374656       -1.85263697014609       -0.03158028404954
C            0.36949177979419       -0.92327393039137       -0.02974418657317
C            0.91244271437254        0.35786412035046       -0.00376089338246
C           -0.01621811003615        1.46485192996438        0.02125496169694
O            0.29897458252451        2.64944712140141        0.03772168112187
N           -1.46494647680732        1.08046423564907       -0.03820772602513
C           -2.44799928700592        2.13999135593108       -0.04454177397456
C           -1.97163925561126       -0.17384314320366       -0.09674373225925
O           -3.13712340450252       -0.49001792356286       -0.12461687321165
N           -0.96886328193695       -1.19322984753980       -0.04979520913474
C           -1.37148944182546       -2.58372022663522       -0.04601646338876
H            3.89363381964043        1.13803006492225        1.11903351194547
H            4.28786759225877        0.77869282095530       -0.53926859138960
H            3.08424732009998        2.08512695965594       -0.19829145181135
H            3.50326181390187       -1.76330228858153        0.00580385497808
H           -1.85162761066590        3.05130649863384       -0.00800997983390
H           -3.06886340285668        2.10268799989664       -0.94457907465151
H           -3.13735487966736        2.06116108884504        0.80471937745732
H           -1.02765260797762       -3.11395397021070        0.84582552006331
H           -1.01475429103645       -3.10226078853865       -0.94008302816875
H           -2.44813481974356       -2.58593323742385       -0.03269510051532
H            1.21065870538618       -2.85890684663665       -0.03429618807761
