25
 energy: 81.526930638971 xtb: 6.6.1 (8d0f1dd)
C            3.79720431614749        0.82445567706170        0.15152337343158
N            2.60086318994375        0.06182596584852       -0.01485838916601
C            2.70456344764123       -1.26827507179072       -0.23861909120729
N            1.48068535381782       -1.84228381762025       -0.21743037997020
C            0.50466304418705       -0.87616926088596       -0.07100927439296
C            1.19932100893465        0.39076620204491        0.04737337889253
C            0.53557372138056        1.54367160111602        0.17649239309375
O            0.22419063383884        2.66997999895652        0.40239847564019
N           -2.40438737788432        1.12734200649507       -0.10954802319922
C           -3.15799805192254        2.30798027867873       -0.11234200119206
C           -2.87460009447653        0.02600581363934       -0.13123882185949
O           -3.48991497451572       -0.94773416374106       -0.17155407386634
N           -0.75442082856768       -1.06230268441446        0.00820253421527
C           -1.15289477307811       -2.44998819042951        0.08510890861102
H            3.74044852091742        1.58661609502457        0.94908757554628
H            4.54735243925915        0.00771165826992        0.29277394985004
H            4.07305552287415        1.51739639715402       -0.64777891833441
H            3.63443180422434       -1.77165373579369       -0.30247591427601
H           -2.43054295201562        3.13357048636043        0.03681392764321
H           -3.70541926380349        2.37726245805605       -1.06080208242524
H           -3.90696814623914        2.19974284697372        0.67569029623779
H           -0.65800540025307       -2.90827157486373        0.94110134191722
H           -0.83240465579641       -2.98974407386885       -0.81197077620593
H           -2.23672466078204       -2.51382081111094        0.23168342632250
H            1.33572649761430       -2.81840682834027       -0.38039146080374
