25
 energy: 79.243283270924 xtb: 6.6.1 (8d0f1dd)
C            3.81828372917856        0.80605780353826        0.17222376962686
N            2.63368768328664        0.03315358717810       -0.00501338867372
C            2.73280733365948       -1.30006665795159       -0.20979790830211
N            1.50633917573765       -1.86773949985863       -0.17890716813358
C            0.53536501498593       -0.89511996283351       -0.05419891053548
C            1.24172668629761        0.36851762011172        0.05847713166154
C            0.59957007617659        1.53233271249996        0.17476325132586
O            0.30354875821949        2.65654694064650        0.42967206015825
N           -2.51804899029616        1.13470468629893       -0.11366377678129
C           -3.23225823721592        2.33751013886653       -0.11111017063968
C           -2.98664355624915        0.03734990767869       -0.13699628819497
O           -3.54725251462848       -0.96786364976868       -0.17610383242724
N           -0.72475400626311       -1.06396068740980        0.01040755261903
C           -1.17369508716740       -2.44139152826003        0.10464001179805
H            3.70121360670523        1.63097259874958        0.90102610458534
H            4.53790513181974        0.02080509125059        0.45199377854118
H            4.16723994101870        1.42666427074606       -0.65617218150877
H            3.65210203542457       -1.81514401525041       -0.25309150168609
H           -2.48576876472062        3.14512587024691        0.04043594717069
H           -3.78021976872567        2.42368193291244       -1.05778027209280
H           -3.97787019856117        2.25854935507315        0.68392541249533
H           -0.64388897643326       -2.88251165045678        0.95145563539175
H           -0.89355165062580       -3.00145625654550       -0.79673267375596
H           -2.25880927467776       -2.47053051667894        0.26348092911674
H            1.32734727302385       -2.83776161318019       -0.34097009759373
