25
 energy: -1.978789517112 xtb: 6.6.1 (8d0f1dd)
C            3.37213609953724        1.12906824660372        0.09513046090989
N            2.33840315758760        0.13113126750151        0.01776817683967
C            2.58413830860665       -1.24816179605037        0.01353100181131
N            1.36546423400103       -1.89086321060884       -0.01483326037447
C            0.38336216294335       -0.97332820375756       -0.02021231187134
C            0.92064795542026        0.30788487196610        0.00291872230302
C            0.02523255561752        1.42777261639539        0.01183603157586
O            0.36401591038647        2.61048902441328        0.02149404800038
N           -1.40009620861261        1.05551991060804       -0.03349169715389
C           -2.36996389256369        2.13427387937416       -0.04626927586340
C           -1.92138837122808       -0.19409027082660       -0.07567482638208
O           -3.10000739762529       -0.46070220002241       -0.09774970208926
N           -0.95646115338039       -1.23223764630439       -0.04270880883920
C           -1.40558067701662       -2.60329876535473       -0.05161777873023
H            3.84376526409760        1.18800271351854        1.09626085266855
H            4.20907629008900        0.88116421780939       -0.58734294197281
H            2.95084887424666        2.09614310586141       -0.16412446310230
H            3.54135796697421       -1.73554356137377        0.02660087765126
H           -1.77731802710170        3.04571798238816       -0.01433574791733
H           -2.98693361462953        2.10290323470929       -0.94762542667191
H           -3.05186870123574        2.07359040888777        0.80765169034122
H           -1.07789002748803       -3.14425012353483        0.83905166073099
H           -1.06030913501519       -3.12464435295015       -0.94756787895340
H           -2.48479013760894       -2.56149528429579       -0.04868566306612
H            1.26089025788283       -2.89600493956874       -0.02288326867289
