25
 energy: 31.173218246571 xtb: 6.6.1 (8d0f1dd)
C            3.59231640759823        1.01350387665420        0.09760468142899
N            2.40154379564035        0.21102275054617       -0.05444938647721
C            2.54538593681953       -1.16840396156486       -0.13445140920673
N            1.31101250329130       -1.74294487258578       -0.13628723531759
C            0.35219850829009       -0.79803911638828       -0.06521982720141
C            0.93140930943588        0.47964950496404       -0.00362746874364
C           -0.01013480169365        1.54407906524595        0.08773493893374
O            0.14645755995771        2.74072077403275        0.13015963196845
N           -1.68832669876706        1.11833505118432       -0.05234707587198
C           -2.67753846052434        2.16467739719623       -0.04795827407807
C           -2.12862519562604       -0.13760046704140       -0.10188523153202
O           -3.22821774711708       -0.60517506863307       -0.19239464424451
N           -0.97938846159234       -1.09422910095430       -0.04998770556208
C           -1.26666711481194       -2.53151498000666       -0.02336638370169
H            3.96767543100218        1.17078092604196        1.12893643182699
H            4.44264494767049        0.43806015254032       -0.37741386481185
H            3.45581606531488        1.99517573103294       -0.34833973113777
H            3.44462803393575       -1.75384092072040       -0.12229576912726
H           -2.05741025977702        3.06907544389027        0.01378563524872
H           -3.30531164462570        2.14399097994092       -0.95315388286650
H           -3.40046343238334        2.04828801356315        0.77839538441090
H           -0.88087834906823       -3.03438914254368        0.86837639260879
H           -0.87997448585496       -3.04013744293959       -0.91375416146359
H           -2.33118077536924       -2.65849572058808        0.01991036532289
H            1.14058226722944       -2.74077035292845       -0.11260151760666
