25
 energy: 69.962433653023 xtb: 6.6.1 (8d0f1dd)
C            3.86625890851737        0.78231137303614        0.19489658315329
N            2.73841095433544       -0.05005669009043        0.04176141701067
C            2.85547567498572       -1.38536414387932       -0.12882709112438
N            1.62366934017031       -1.94562035460858       -0.10423728434828
C            0.64718703474826       -0.96897851330265       -0.01404472228756
C            1.36574183037922        0.29769972018568        0.07934907818188
C            0.78493903303165        1.49611575607596        0.14811636801882
O            0.47830204224151        2.61466220156805        0.43059270242269
N           -2.84973148442311        1.16759490725244       -0.12403901742134
C           -3.43960662781562        2.43070573219438       -0.10957836701410
C           -3.29725656761728        0.07177037543229       -0.14852798169352
O           -3.72352128100795       -0.99975274270463       -0.18549381163365
N           -0.61521629525064       -1.10091154123243        0.01883658123091
C           -1.18566711071028       -2.43821064647392        0.09805189791849
H            3.72013368206839        1.65474756654844        0.81676618004008
H            4.57149460704944        0.13492585215442        0.70926606573843
H            4.29680370998124        1.13508283348077       -0.74198576785971
H            3.76697781652220       -1.91907948788468       -0.18180867560801
H           -2.62528169875631        3.15689375145499        0.05302578112640
H           -3.98268560475157        2.57917417531095       -1.05067531987347
H           -4.16915936998853        2.44902211494559        0.70435223257117
H           -0.72334940218634       -2.91924409620992        0.96767044155670
H           -1.00519852011065       -3.04213784417646       -0.79133786562790
H           -2.26981971048056       -2.42999987579428        0.21895808498112
H            1.44684803404342       -2.92030979429279       -0.23645133352439
