25
 energy: 84.026632080541 xtb: 6.6.1 (8d0f1dd)
C            3.77575489583307        0.83787455429926        0.13664193293544
N            2.56841666011675        0.09093994239362       -0.05068030586961
C            2.67493861552155       -1.24035121810390       -0.27557146835393
N            1.45028807700401       -1.81362298723814       -0.27304741525537
C            0.47217998846992       -0.85820209198199       -0.08905811386205
C            1.15515295057743        0.40997042971491        0.03214225698505
C            0.47193702539043        1.55048886489088        0.19703039333754
O            0.15133022696528        2.68516900085063        0.35914587743374
N           -2.29107037091974        1.12088195195544       -0.10679975094734
C           -3.08377309137568        2.27858626680984       -0.11526147837309
C           -2.76049375739564        0.01154354469300       -0.13218200757456
O           -3.44034752363676       -0.92146050422138       -0.16691058064610
N           -0.78776107192305       -1.06135538654116        0.00785831543581
C           -1.14199506576801       -2.45891427101070        0.06568674076976
H            3.78826793418767        1.51856155160272        1.00181161223668
H            4.54844514739366        0.00718084926989        0.13953273495541
H            3.97619267207271        1.60577360307542       -0.60722558584444
H            3.60090785744431       -1.76005842170216       -0.31384520941526
H           -2.37439914624674        3.12127473831954        0.03731356288987
H           -3.62831848287395        2.33558710048142       -1.06632509013942
H           -3.83764558837474        2.14083296127318        0.66216131269147
H           -0.67914998563068       -2.92984549792128        0.93241761305368
H           -0.78067285206548       -2.97889182750301       -0.82496920680215
H           -2.21959115148277       -2.56412804718168        0.19558576242701
H            1.30835593457794       -2.79844253091657       -0.35682103757343
