25
 energy: 68.324952665099 xtb: 6.6.1 (8d0f1dd)
C            3.90294340164706        0.76388478623737        0.17411844314027
N            2.78022978849858       -0.07791036874384        0.06284905522370
C            2.90127226527870       -1.41212526274817       -0.10678778784998
N            1.66868720291569       -1.97201925174916       -0.08394612244557
C            0.69091834839967       -0.99307783433909       -0.00310439961716
C            1.41086788775832        0.27228442591005        0.08964517914688
C            0.83984208044154        1.47471733612606        0.14223603163847
O            0.54082423723980        2.60253615340189        0.39909777129395
N           -2.95935424883472        1.18549795584476       -0.12908708979060
C           -3.50925005991005        2.46837496202307       -0.11148579699266
C           -3.39349214901961        0.08613086881357       -0.15608745097926
O           -3.78152545280997       -1.00131552621178       -0.18491575253675
N           -0.57141776656949       -1.11340098391792        0.02406465127523
C           -1.16587755928300       -2.43318393018270        0.07930221437320
H            3.78349977628279        1.60514334417223        0.84494478402770
H            4.66346121221147        0.11723108374001        0.61809515733125
H            4.32344525756371        1.05211914536208       -0.79258375273702
H            3.81621066439568       -1.94276817142879       -0.17046941461137
H           -2.67845819198745        3.17466761456795        0.04511714259429
H           -4.05061303102986        2.63736171528136       -1.04932093880729
H           -4.22890859503621        2.51920116027871        0.71035264368088
H           -0.74546024563836       -2.93988821153977        0.95837819336199
H           -0.98308029277783       -3.02825562218325       -0.81442595779239
H           -2.25071739578369       -2.40987859842976        0.17703056515350
H            1.49606058485991       -2.94792630519234       -0.21247805712920
