25
 energy: 41.081041058224 xtb: 6.6.1 (8d0f1dd)
C            3.42383352038383        1.50740185358433        0.08339781922323
N            2.57797706294120        0.34976677776582        0.06954933798216
C            2.97610058512205       -0.91224105401878        0.04770096751715
N            1.91362385792120       -1.74651248326948        0.00886141461577
C            0.77456317337954       -0.96708153432798        0.00381001411661
C            1.21641335968010        0.36082605854485        0.04339495096635
C            0.27144474375651        1.46661996396511        0.01576817201248
O            0.59599565791152        2.64921383750365        0.01634265321272
N           -1.00630796730520        0.98591730782358       -0.02635258187054
C           -2.09467300832769        1.94937578109298       -0.05309152314133
C           -1.41156479381321       -0.40610307270289       -0.04097277133268
O           -2.60899271192072       -0.55925888451181       -0.06310546216663
N           -0.46382007227045       -1.36761927428085       -0.03227837622119
C           -3.00351104907914       -3.34736012224632       -0.10393098156536
H            3.91089057600597        1.60377989985152        1.05272049149721
H            4.18141261820308        1.40858837177812       -0.68980605843069
H            2.82535066248382        2.40009608559458       -0.10187237764112
H            3.99725015204983       -1.22844776626237        0.04877698464402
H           -1.62343204890936        2.92711452985810       -0.02240127105728
H           -2.69250022494004        1.84150775029922       -0.95952159068472
H           -2.75628682140794        1.81535356297507        0.80408258022795
H           -2.72795562405557       -3.80761235101474        0.81116070717933
H           -2.70212323282934       -3.76654513010352       -1.03114612862361
H           -3.54948856818192       -2.43562293482331       -0.09127932258251
H            1.99790570015503       -2.75503895619041       -0.00200219821384
