25
 energy: 42.852001833752 xtb: 6.6.1 (8d0f1dd)
C            3.40822623817892        1.48083109407190        0.08155062221670
N            2.55295732004899        0.31439529607448        0.07550536011722
C            2.94654195462727       -0.95559210750692        0.05949782851740
N            1.87131037414917       -1.78420833176545        0.01128988122226
C            0.73222862049829       -1.00472880531069        0.00230178028590
C            1.18893080885795        0.32251621982466        0.04159688507878
C            0.25494364407322        1.43465081688015        0.01586971112482
O            0.59471889633785        2.61329440695764        0.01995923163617
N           -1.02916297103432        0.97134962151417       -0.02787916889174
C           -2.09623713737514        1.96432356304426       -0.05215703455209
C           -1.45304056524374       -0.40163679577102       -0.04196159647641
O           -2.65565641841554       -0.52855789448730       -0.06316704163427
N           -0.52147562024829       -1.38617006957082       -0.03416950223192
C           -2.86751304086310       -3.24701411043261       -0.10048956695252
H            3.90535643561854        1.58066621047484        1.04728078724239
H            4.16939363111175        1.38286114734532       -0.69508706292069
H            2.81733383059983        2.38436151909049       -0.09645318706589
H            3.96132375189592       -1.28417990021550        0.05147608065810
H           -1.58841596511052        2.92213000040819       -0.02763238828973
H           -2.70408461976157        1.86915056780538       -0.95350268938038
H           -2.75282008712521        1.85001157871011        0.81140664652844
H           -2.60059102760139       -3.69655410413558        0.80980627692402
H           -2.57800643296675       -3.65237618928914       -1.02520560642465
H           -3.44852833263802       -2.36555377822209       -0.08814107057108
H            1.94214088658098       -2.79680186877562        0.00422093369055
