25
 energy: -2.648394231420 xtb: 6.6.1 (8d0f1dd)
C            3.25835655678074        1.23173504070769        0.09139444807896
N            2.34544606995699        0.12783083221085        0.02881341288394
C            2.67130946611922       -1.21824413389366        0.03455295166429
N            1.50282588301359       -1.93683904870419        0.00771166923505
C            0.44274087998902       -1.10573747508529       -0.00920751138646
C            0.95016939920118        0.20270827701442        0.00575362803980
C            0.13819616482118        1.35509270508688       -0.00952147937156
O            0.48349836109567        2.54160402908517       -0.01236732591229
N           -1.24596925488661        1.00126238441541       -0.03218637383335
C           -2.20243515743222        2.10170447813643       -0.05017134690178
C           -1.77314917312777       -0.24950205900906       -0.04800966589589
O           -2.97747351157179       -0.42626141880236       -0.07104224913039
N           -0.91350340396568       -1.38104802015554       -0.03773657354544
C           -1.64486020245385       -2.65729698446616       -0.06411339231391
H            3.75511695040881        1.27506971918900        1.06695870969057
H            4.02803456167914        1.13868993333962       -0.68145814592637
H            2.69686752124465        2.15991122994235       -0.05449056119360
H            3.65550961604340       -1.62632379468349        0.04680849238465
H           -1.63756377644029        3.03451622930058       -0.02591958125352
H           -2.80730022538128        2.04692360737874       -0.95492430266005
H           -2.85795069332671        2.02895611626198        0.81681789221784
H           -1.43360803834334       -3.25724730430930        0.82405009980799
H           -1.40694072194644       -3.23544259181371       -0.95992912295257
H           -2.69628394344127       -2.40002112395123       -0.07697156595328
H            1.47887326128258       -2.94008687139599       -0.00160651611223
