25
 energy: 39.578655918238 xtb: 6.6.1 (8d0f1dd)
C            3.44569301094641        1.54668794967720        0.08635836386435
N            2.61030723282162        0.37816051386947        0.05719341266993
C            3.01482446438170       -0.88422691001461        0.04553151962676
N            1.94906496742644       -1.71431160981682        0.01097583852215
C            0.80561897045726       -0.93957328463835        0.00415522189134
C            1.24357548477861        0.39022650071118        0.03559158196995
C            0.29456539000799        1.49024654960916        0.00770826687699
O            0.60769553424065        2.67689528466795        0.00960831187886
N           -0.98318514592123        1.00229023272633       -0.02839944886641
C           -2.08377930318149        1.95267634265805       -0.05296470599583
C           -1.37754540949077       -0.40639520507358       -0.04130906454718
O           -2.57115266486170       -0.58937433086447       -0.06481735150456
N           -0.42662042010975       -1.36107788418096       -0.03031201364333
C           -3.15512808160918       -3.43829448916385       -0.10754058526009
H            3.93208063175662        1.63512124005013        1.05615234645452
H            4.20185877572951        1.47892948183944       -0.69277837920902
H            2.82296971083781        2.42478562732039       -0.08189986826176
H            4.03608309707101       -1.19573330312218        0.06098350768539
H           -1.64914588894700        2.94777268817231       -0.02494319032766
H           -2.68127377097049        1.81914132674979       -0.95569179405989
H           -2.73564096609780        1.79428275969913        0.80637874664668
H           -2.88803256800676       -3.90843282085653        0.81237894354969
H           -2.85897195041340       -3.87114541943965       -1.03706322701761
H           -3.66060424802560       -2.50316528349413       -0.09746998354936
H            1.98726657589384       -2.72386628331994        0.00560393816378
