25
 energy: -42.162297394784 gnorm: 0.001633037366 xtb: 6.6.1 (8d0f1dd)
C            2.95368809940579        1.37452687675703        0.11182659442470
N            2.09496707805086        0.21360308852153        0.14175212231830
C            2.47031097734123       -1.04993868607043       -0.05803276629884
N            1.37773167744454       -1.84325189350245       -0.14863482785983
C            0.27619294017496       -1.05587735038842       -0.01849840330217
C            0.71749576585775        0.25799796230029        0.16283269589745
C           -0.17774923208758        1.32666315818777        0.33968410099739
O            3.24150450279021        1.60350978737238       -1.23464946044535
N           -1.45653501689991        0.95765376931877        0.29886826196370
C           -2.47847806164866        1.97569600026536        0.46624084790953
C           -1.97297634924621       -0.33348471558485        0.10753485941763
O           -3.15045365862700       -0.55707889422320        0.08155602557405
N           -1.02880324203295       -1.36802180684169       -0.04782199806729
C           -1.49852721814532       -2.72414736686701       -0.25462560456832
H            2.39280458985059        2.20254013903892        0.56729652588613
H            3.86285773579198        1.16053177027352        0.69444162825247
H            3.76029312116973        2.40908273580585       -1.34078934084567
H            3.48307963430761       -1.38830001241774       -0.14502722865656
H           -1.98875295293424        2.93826935701314        0.57840601830549
H           -3.13904944526860        1.98337408807414       -0.40087740564956
H           -3.08267775241404        1.75263614244587        1.34598004659341
H           -1.10097425609827       -3.38540709328238        0.51511087979986
H           -1.20835916230894       -3.08072621975515       -1.24349666686857
H           -2.58571165285064       -2.70912369574903       -0.18787397332327
H            1.39855339264647       -2.84248859921414       -0.30003131376501
