25
 energy: -42.165812621840 gnorm: 0.006373939695 xtb: 6.6.1 (8d0f1dd)
C            3.17021871991283        1.06944958181133        0.30800596782785
N            2.21788299637159        0.03700091579919        0.04001889347148
C            2.46763545038142       -1.34915461325984        0.16895390409193
N            1.46616918483826       -2.07290781189234       -0.09251945632330
C            0.41237429071672       -1.19755378771303       -0.53555981799199
C            0.97139953538758        0.16536855421414       -0.34446908256156
C            0.10867452492787        1.35737596582963       -0.33812997339274
O            0.52610229650596        2.48722053121238       -0.42843900589886
N           -1.20675018577211        1.01532644485923       -0.15554368264066
C           -2.17689758950735        2.09292432455264       -0.07487966812511
C           -1.73468588721904       -0.26873524910429        0.14154432677800
O           -2.88369178479976       -0.38130536296774        0.46168462236840
N           -0.87682594369923       -1.33944105244463        0.07482802955406
C           -1.40680244414725       -2.67790749776427        0.21790978983977
H            3.58497162665416        0.93931762743362        1.30890835620267
H            3.99165787350158        1.00695116320465       -0.40978162401537
H            2.69095629399775        2.04504602201454        0.21979183205124
H            3.42804105552880       -1.72141786992575        0.47918310400105
H           -1.69317371848371        3.01911155565913       -0.37447087881519
H           -3.01601300809915        1.86451663517970       -0.73219087122418
H           -2.56327052188141        2.18097978321710        0.94122173477415
H           -0.65804060716819       -3.30109124876286        0.70328995318877
H           -1.66033528546488       -3.11041885526408       -0.75285235515988
H           -2.30902452399931       -2.61890805792390        0.82340287639560
H            0.30985916561678       -1.42350915636526       -1.61873535649581
