72
 energy: -99.269745618133 gnorm: 0.004327789943 xtb: 6.6.1 (8d0f1dd)
N           -1.94295599458380        2.86904157725771        2.26819371882906
C           -1.87253039752964        2.13977528909314        1.25673857849640
C           -2.99866686203613        1.92406936904157        0.28154867923384
C           -3.43436217003829        0.46912797041294        0.31240431559304
C           -4.30297958612184       -0.01597424188346       -0.66765495324650
C           -4.75867924826398       -1.32436287639554       -0.64870722043753
O           -5.60346081078256       -1.87178173111985       -1.54167601687390
C           -6.17638813880113       -1.05975728931714       -2.54230903551550
C           -4.32186368492577       -2.19501638400288        0.38747981184378
O           -4.81215667934428       -3.45437960676264        0.31877845557708
C           -4.60461137229446       -4.39848032597594        1.19802234547181
C           -3.45840045607179       -1.70610161816939        1.36544462807621
C           -3.02521231258737       -0.39292138969943        1.32454449253033
C           -2.42195367634883        2.28962863795213       -1.11161897171036
C           -1.45420297550336        1.24826113028031       -1.70284685056078
C           -0.13303112504954        1.21451687156201       -1.03640705318432
N            0.52424598196105        0.11502589736671       -0.68178695438865
C            1.90496699668242        0.18631610206806       -0.26552422501378
C            2.86288238950386       -0.24070898108168       -1.39461322128129
C            4.28872763047547       -0.07545990629791       -0.94891810088371
C            4.95543845849329        1.12262870553101       -1.14653002358776
C            6.26343215981803        1.28633883907209       -0.71763029195808
C            6.93066702282368        0.25322665875291       -0.07525335959242
O            8.19670688307175        0.29826971246731        0.37823674214942
C            8.95450416409390        1.47078272577987        0.18662431203676
C            6.25224124656572       -0.97887492657154        0.13797878934308
O            6.97332850721936       -1.92839495456965        0.76634387143400
C            6.39858300714945       -3.19263676320247        0.99537210067178
C            4.94443932324611       -1.11851417682873       -0.29903094938000
C           -0.06491399141775       -1.19783704282571       -0.79091232639089
C           -4.25248175245308        2.80159850962559        0.57964232744458
C           -4.88146946700126        2.44083119750503        1.92343789226788
C           -3.96304036493567        4.29923656796158        0.53179686581592
H           -4.64089814577026        0.64487537979099       -1.44830735389405
H           -6.73714768621048       -0.22728510299120       -2.10826341698378
H           -6.85918563648589       -1.70874686650691       -3.08687087825658
H           -5.41774458299678       -0.67537092806734       -3.23093803235550
H           -4.04189302800093       -4.25901041952388        2.10417178636853
H           -5.76700057636259       -5.19851663338452        3.65359472381793
H           -5.10069144178230       -5.32711187344312        0.98846738376877
H           -3.12974044781501       -2.34348347580732        2.17002152148137
H           -2.38165059937893       -0.03369067958313        2.11214332137374
H           -3.24801965092135        2.41777473911122       -1.81044476007235
H           -1.90693825839900        3.24778453935460       -1.03348179323883
H           -1.92669565417463        0.26773435440448       -1.70849971011937
H           -1.28283002399641        1.54153265037171       -2.74707911109610
H           -0.95245003383387        1.61351469212716        0.93913291358383
H            0.40617941927974        2.14627006218938       -0.95243712565212
H            2.05301290908035       -0.46261518222215        0.60198521833800
H            2.14129938168645        1.21046913965751        0.02967864049341
H            2.67241540613522        0.38307323445938       -2.26959241756506
H            2.67179188664223       -1.28042468159828       -1.66274219506975
H            4.46191303503792        1.93884318193517       -1.65188823361491
H            6.75886892077730        2.22677554170108       -0.89426065084993
H            8.50518231432531        2.32665392611822        0.69937394668260
H            9.07255009805537        1.70157641644395       -0.87631333242288
H            9.93012512102738        1.26183531368382        0.62105335263602
H            7.17109874622869       -3.77976829770313        1.48804919629849
H            5.52469755977011       -3.12351668484332        1.65124978249494
H            6.11608894899994       -3.68114078387569        0.05762182217210
H            4.42436423944666       -2.05195158349089       -0.15034082407435
H           -0.18971915654284       -1.49145548373292       -1.83572714297084
H           -1.04050512509152       -1.21953232888139       -0.29991583724130
H            0.58249376037643       -1.92201815710453       -0.30302263369245
H           -4.98256287080430        2.57249261316719       -0.20528573755946
H           -4.19737208730127        2.68002993711796        2.73091795426092
H           -5.13106035180939        1.38358034633558        1.97224101426522
H           -5.79449977795180        3.01342958633288        2.06252121447504
H           -3.20534272384792        4.56056110616765        1.26383408971566
H           -3.63741215403591        4.61968384395495       -0.45417925913873
H           -4.87158955854194        4.84388235908424        0.77459944510189
H           -1.10941928283527        2.96993217471551        2.83902958833604
