25
 energy: -5.753074729531 xtb: 6.6.1 (8d0f1dd)
C            3.24736053001730        1.17405512606050        0.08635413179704
N            2.30297240174527        0.10523829342444        0.03811634347791
C            2.59951400205062       -1.23955068018650        0.03771285007180
N            1.41304894414888       -1.93604120890854        0.01464098229271
C            0.38446639112610       -1.05943525489092        0.00272626588135
C            0.91308381748300        0.22346264709712        0.02274102045505
C            0.10356613434501        1.37279848946773       -0.00182829457570
O            0.49573519750056        2.54568045128772       -0.00513049897765
N           -1.29699777286721        1.03992261648045       -0.03772638200737
C           -2.21954505025874        2.15902312413669       -0.02763040254280
C           -1.86522427057190       -0.19591509779017       -0.12205736480604
O           -3.06032976478552       -0.38913219234605       -0.17045005862267
N           -0.96138301578077       -1.29366732021362       -0.05126418393430
C           -1.46514180999959       -2.64725723665133       -0.05304224953349
H            3.73136668575692        1.21963313806206        1.06658058835306
H            4.01690269460050        1.03741262325136       -0.67794551387516
H            2.70912488377819        2.10377185972502       -0.08786751340458
H            3.57987934443255       -1.65149053316877        0.04242098875949
H           -1.64640152878085        3.08514669707101       -0.06866517882686
H           -2.87679144299581        2.07480984860563       -0.88742948805555
H           -2.82895613849373        2.12472342891342        0.87458271813429
H           -1.14381193543450       -3.19242144231344        0.83932055578080
H           -1.13589261820393       -3.18227379157157       -0.94775180535628
H           -2.55042227329128       -2.57612859502498       -0.05733923384708
H            1.37181130485103       -2.94088274529613        0.00342459245820
