25
 energy: 112.468405620895 xtb: 6.6.1 (8d0f1dd)
C            3.30427617602958        1.15408039213378        0.12205572454136
N            2.35187341510124        0.06519842152595        0.07240648785251
C            2.70879142017642       -1.21660306901326        0.06788132128626
N            1.60864194108320       -1.99562241829123        0.07226859628653
C            0.44981093717529       -1.16564095874626        0.06297853869799
C            0.98013093488488        0.16280532114587        0.08336630661792
C            0.15364161996586        1.38626063334051        0.04396002555674
O            0.68576454790611        2.49569249957731       -0.07498889716384
N           -1.21246656723333        1.11070964279113        0.12010561659030
C           -2.06610645316554        2.26708829224698        0.16468617422832
C           -3.41192828591337        0.52947453319412       -1.24013030400072
O           -3.96836050780938       -0.39286269510786       -0.88024012366493
N           -0.78043786409475       -1.47335709539528        0.02595725755202
C           -1.29724032052622       -2.79382943583770        0.03370530023761
H            3.79498475516745        1.18055640076525        1.09868149171708
H            4.06767966960885        1.01727713386797       -0.64691598787391
H            2.77977345783821        2.09710064394722       -0.03762164429440
H            3.71865020071170       -1.58077442578165        0.07558583111631
H           -1.78809562498371        3.10046445810305       -0.49602307291528
H           -3.11574462042065        2.04350439499390       -0.09489408145595
H           -1.97741094927294        2.64572093263231        1.17815574948467
H           -0.90690398146319       -3.34536599177985        0.89143457425955
H           -1.02948204585954       -3.32727209980346       -0.88610950564096
H           -2.38670394923048       -2.72700451087404        0.09523938014461
H            1.59828263811445       -3.00122484194680        0.04615951574274
