25
 energy: 75.520274478105 xtb: 6.6.1 (8d0f1dd)
C            3.27859693378433        1.14814940563826        0.12132901968443
N            2.29850566870508        0.09663822315586        0.07862202155331
C            2.61888200505045       -1.21319644576492        0.10963902932939
N            1.48198899274122       -1.96703554510023        0.03505836113410
C            0.36099344055333       -1.14417134105965        0.00960533643403
C            0.90207348720944        0.17044299126254        0.04116242642081
C            0.15058296495648        1.29702366104993       -0.01060216254547
O            0.46009132528537        2.47204235114107       -0.06215248980099
N           -1.62371096912844        1.00957071947196       -0.14815337553405
C           -2.22359689490843        2.29879663337177        0.13550750718724
C           -2.51766947123153        0.24727784462282       -0.62214229903004
O           -3.42387303743699       -0.39551041723378       -0.96895427567616
N           -0.91464556931179       -1.36372855060613       -0.03620807623156
C           -1.35683894677226       -2.72055893762576        0.00676056083575
H            3.79974269333237        1.18081670988066        1.08613966278167
H            4.03667738212326        0.98385786468637       -0.65116352303742
H            2.78876567439712        2.10683296777199       -0.05435430433419
H            3.61934631414569       -1.58088504592602        0.08090253603071
H           -1.72104366330203        3.10160214724096       -0.40905845445107
H           -3.22626979650749        2.11310640011927       -0.22838831698958
H           -2.31687722601060        2.48159562364527        1.20648488083055
H           -0.93566178962519       -3.20654035815247        0.89228443341678
H           -1.04177424059929       -3.26301019520525       -0.88882342145630
H           -2.44848150036922       -2.74979549929137        0.06524855327194
H            1.50122147408757       -2.96678540913653        0.05435044437749
