25
 energy: 0.704597803344 xtb: 6.6.1 (8d0f1dd)
C            3.25808607600228        1.17456968903638        0.08958436635596
N            2.29764956961753        0.11233467826951        0.04139796150068
C            2.59643028920748       -1.24187530115091        0.05617139262224
N            1.39649567788893       -1.93403581477587        0.03763160222866
C            0.35227821168672       -1.06269783392806        0.00310509546368
C            0.89648436369379        0.21201630959731        0.02415818870789
C            0.06954680598662        1.34170595254393       -0.03489868277237
O            0.46971918621984        2.51189544064166       -0.04419942428953
N           -1.36478060145926        1.02282895654558       -0.08251796520621
C           -2.22099150175417        2.18227194037972        0.00953127653530
C           -1.96766586712278       -0.18761557813710       -0.27362399436766
O           -3.14988376539575       -0.40137420581827       -0.37451294449271
N           -1.01105117761684       -1.27882496263712       -0.08017574321918
C           -1.45067023059159       -2.65655972095565       -0.04118176615927
H            3.75066677231614        1.21696960127578        1.06733862912271
H            4.03086237894731        1.03445253238740       -0.67496530532771
H            2.72839567315909        2.10926480474810       -0.08232615829048
H            3.58724901588416       -1.64971195004996        0.04133473561789
H           -1.62768054930686        3.08739732832665       -0.15905029207197
H           -2.98379593756348        2.04913682357615       -0.74424748523068
H           -2.71696302529841        2.21647009604728        0.98203409421996
H           -1.09160580365338       -3.18445501884111        0.85129544283695
H           -1.11452041709511       -3.19868584228410       -0.93062434113132
H           -2.53522047487943       -2.62916047961849       -0.02669403424451
H            1.38562164204209       -2.94044991276907        0.03221347860967
