25
 energy: 109.376810308145 xtb: 6.6.1 (8d0f1dd)
C            3.31265290929807        1.15209651054679        0.10644701261977
N            2.36159073519680        0.06336559654520        0.07068974659986
C            2.70648665852829       -1.21278011544435        0.06557173569172
N            1.60732955125642       -1.98068562075607        0.07694027774396
C            0.45308133082773       -1.15222124297215        0.07707425638006
C            0.99028566847589        0.17685137015196        0.08432835829519
C            0.20056375057642        1.40935357304974        0.03978229789992
O            0.72892316085268        2.52174419683634       -0.09161431518977
N           -1.13748390226287        1.13399922583713        0.15320396987708
C           -2.04357607014241        2.23964470458451        0.16767086068244
C           -3.67430232258274        0.50262722756955       -1.29674531854203
O           -4.13373785878984       -0.48345437286870       -0.99558884248188
N           -0.77437463551663       -1.48304191041956        0.07411888345845
C           -1.28988433201730       -2.80793208262034        0.04339104047342
H            3.80647091210442        1.19670785858861        1.08133063164114
H            4.07334811059891        1.02434553736122       -0.66589902148700
H            2.78173417386340        2.09199509643473       -0.05858652343797
H            3.72269561310171       -1.56162049582851        0.06882268876641
H           -1.71976657764278        3.11976632065523       -0.41674610896312
H           -3.04863945719260        1.98723733025197       -0.24682802212420
H           -2.11078530453324        2.54106094898462        1.21534118232639
H           -0.93312173466038       -3.38487579739965        0.90110049444914
H           -1.02132786381091       -3.34373061576606       -0.87433166997489
H           -2.37448059158226       -2.70384263800891        0.08258857334259
H            1.61462634481407       -2.98437567282311        0.05455251783888
