25
 energy: -3.342668495280 xtb: 6.6.1 (8d0f1dd)
C            3.25286363128035        1.17459978855032        0.08746402393333
N            2.30049075870247        0.10878633703498        0.03905459699909
C            2.59839698890196       -1.24011112369619        0.04434364265891
N            1.40491138285513       -1.93401053437632        0.02722365683969
C            0.36779822449712       -1.06043787430190        0.00803997285601
C            0.90416629591651        0.21845916193866        0.02582560832302
C            0.08783724130846        1.35580502437125       -0.01318114762526
O            0.48584681486087        2.52733359882594       -0.02860874893938
N           -1.33031242470933        1.02947843397407       -0.05152230265787
C           -2.21974565560399        2.17025175880867       -0.00686627091151
C           -1.91681796494971       -0.19305793941884       -0.19548808462878
O           -3.10629782870109       -0.39429406354699       -0.27061786998798
N           -0.98695421515670       -1.28619400426244       -0.06353566164864
C           -1.45853209466337       -2.65248782222621       -0.04644686326166
H            3.74185755566483        1.21788274055277        1.06623970199094
H            4.02368059821088        1.03653029108310       -0.67754356511944
H            2.71904024245254        2.10707138421030       -0.08469125105705
H            3.58377738439539       -1.65130904953481        0.04066978049343
H           -1.63438662603669        3.08660150628032       -0.11350871674053
H           -2.92976132095487        2.05862052673101       -0.81628989168522
H           -2.77546863892492        2.17225712392632        0.93093530403415
H           -1.11829884541945       -3.19038569372901        0.84532423970990
H           -1.12625181234096       -3.19102660791753       -0.93868419247219
H           -2.54357961823789       -2.60300285831176       -0.04206447348161
H            1.37840427697379       -2.93966890425186        0.02033476886912
