25
 energy: 87.799725288812 xtb: 6.6.1 (8d0f1dd)
C            3.28115216941105        1.14707730184763        0.12835878534207
N            2.32281454172338        0.08684425832179        0.05998077807842
C            2.65149633553719       -1.21049659823737        0.09442663288607
N            1.52696858318987       -1.97713908822052        0.04793052113813
C            0.38588553034345       -1.15546280661829        0.03170591099759
C            0.92719322925929        0.16708467610708        0.04491399536773
C            0.21300692935938        1.32333917441769        0.02237662607698
O            0.53894984659349        2.48480725478852       -0.07106579539559
N           -1.71677671500303        0.98358193132929       -0.13944839172484
C           -2.21337397433176        2.32629142621924        0.17283487310915
C           -2.71771689787280        0.40483563677225       -0.68672191584338
O           -3.53586068851034       -0.34272171368908       -1.07696758192444
N           -0.86243966588324       -1.40147985535923       -0.00423488224619
C           -1.32167400378481       -2.75234587784907        0.02614217194618
H            3.78789176470741        1.16522464181036        1.09657465374334
H            4.03994949877012        0.99421939442285       -0.64033805354885
H            2.78987949608345        2.10483132283822       -0.03794787014258
H            3.65302421650843       -1.58102557633910        0.08398394108314
H           -1.77267004357551        3.09698300807078       -0.44996908786676
H           -3.25247448876427        2.16986431347255       -0.05500401967187
H           -2.14861620224981        2.53865106961795        1.23337382823863
H           -0.89254219492817       -3.25249956663084        0.89675389755210
H           -1.02327259588050       -3.29050285482572       -0.87609388568167
H           -2.41131155492017       -2.78155475694320        0.10229679479314
H            1.53875236482137       -2.97643308780455        0.05731609057049
