72
 energy: -99.319569679806 gnorm: 0.006618846669 xtb: 6.6.1 (8d0f1dd)
N           -1.90128436092858        2.91111682967077        2.20453027279185
C           -1.85899018903019        2.16513696491755        1.20338557307508
C           -3.00350670054964        1.93953906841881        0.25472708783616
C           -3.44982308118067        0.48789594798885        0.33748737118516
C           -4.35458707503054       -0.01424959218381       -0.60037131862741
C           -4.80849485779190       -1.32087223722891       -0.54100699984601
O           -5.68830220827482       -1.88010124897876       -1.39966784322411
C           -6.29529901792708       -1.07550182983683       -2.38268682667102
C           -4.33837680779764       -2.17880636132276        0.48857691234893
O           -4.82866621598817       -3.43612165056429        0.46689961033363
C           -4.48364272525936       -4.32108698408106        1.50648651121565
C           -3.44152319059477       -1.67476990340154        1.41610549941227
C           -3.00648990313033       -0.35712154102558        1.34209073958521
C           -2.44647060109299        2.24852021753114       -1.16018432695903
C           -1.51653402348333        1.16425096882504       -1.73264472901904
C           -0.19079546896911        1.11079563363619       -1.07774745438415
N            0.44616205622822       -0.00162896273482       -0.72337378005848
C            1.82842970378284        0.05370342156365       -0.30996735101274
C            2.78513594492578       -0.22291240513357       -1.48464258371482
C            4.20901143247819       -0.17479462052413       -1.00091424644801
C            4.82139803657201        1.07182685852497       -0.79393734107353
C            6.16470537313072        1.15659563727404       -0.41843682108510
C            6.89278612606785        0.02543177339250       -0.16245995174812
O            8.20659685107579       -0.04871441801153        0.13226082977202
C            8.96617317449921        1.13963228879619        0.18478029263868
C            6.24674009413399       -1.32368499737798       -0.15018667861822
O            6.02534572516992       -1.69322690635233        1.28530960530178
C            6.45363358245516       -2.83884138377712        1.72439423592303
C            4.90128646921185       -1.32920785024955       -0.76578768913545
C           -0.16609157370411       -1.30311252328867       -0.84093060396154
C           -4.23698049789809        2.84443967277592        0.54520429540314
C           -4.86036556953861        2.52076164188510        1.90092733278365
C           -3.92114985580149        4.33552751330342        0.46570570381503
H           -4.72035688607701        0.63316711896466       -1.37993653774019
H           -6.83460349261325       -0.23472182678241       -1.93599498632076
H           -7.00245937857233       -1.72481824236369       -2.89505117621607
H           -5.56331902053151       -0.69967619269882       -3.10525076267302
H           -4.78331227829661       -3.92895838966555        2.48291956828016
H           -5.03182725698223       -5.23877491952650        1.30271589096250
H           -3.40988081529773       -4.53506792596587        1.51258528386577
H           -3.08133325099113       -2.29705410434681        2.21919306686024
H           -2.33328588728777        0.00719500960541        2.10253832794109
H           -3.28402917489685        2.36992466734484       -1.84630042718670
H           -1.90907115031638        3.19702265203635       -1.12576126671632
H           -2.01834494016056        0.19896060446874       -1.69904944544884
H           -1.35079542560805        1.41814506562380       -2.78817742699543
H           -0.95131351843379        1.62041748364852        0.87818677815531
H            0.37015632331452        2.03093160601240       -1.00915658100284
H            1.99897322943889       -0.68597200116417        0.47593483518166
H            2.04424077411596        1.04237022758479        0.10054279067635
H            2.62332055157648        0.53077233291058       -2.25764569771200
H            2.56912618820848       -1.20432255419179       -1.90770902272019
H            4.27125336914022        1.98008338022147       -0.98147669082732
H            6.62578414270662        2.12977998668439       -0.36167226194746
H            8.60393656686660        1.80525006453025        0.97290006424662
H            8.94641733519257        1.66334417400476       -0.77489729806029
H            9.98464438794755        0.82936007470195        0.40967770616963
H            6.92308878556650       -2.08942018178571       -0.54729564006480
H            6.09792944795665       -3.14342778637002        2.69310422133739
H            7.14210029500090       -3.44912707314387        1.16160422635083
H            4.45263766441815       -2.29494601088591       -0.93665329455677
H           -0.35389324343076       -1.56064413461636       -1.88556935403282
H           -1.11397401986218       -1.32854348992360       -0.29732640274881
H            0.49800256424546       -2.05055376463525       -0.41480872379331
H           -4.97835940218006        2.61389640007009       -0.22855308820442
H           -4.16287480512698        2.75871166518868        2.69737147390521
H           -5.12956278608569        1.46947314947221        1.96861340030009
H           -5.76041229348506        3.11405211522277        2.03892486313029
H           -3.16342793603057        4.59922924602155        1.19679105077934
H           -3.58205379800590        4.62688413292898       -0.52485442099627
H           -4.82117118209205        4.90234804230230        0.68909028528247
H           -1.05546473208445        3.00842989860547        2.75778618729755
