  72
        -99.36083021
 N         -1.1745817430        2.0591784771        2.5157372562
 C         -1.0796697486        1.3939974885        1.4608777350
 C         -2.1067904345        1.4239421438        0.3542827743
 C         -2.5370952854       -0.0749353786        0.0735172374
 C         -3.8015844172       -0.1822519652       -0.7040376710
 C         -4.8436824658       -0.9830480596       -0.3491311960
 O         -6.0128733530       -1.1011828723       -1.0125309503
 C         -6.2466520819       -0.2987572470       -2.1469806939
 C         -4.7594547743       -1.8104894505        0.8261626375
 O         -5.8272332776       -2.5622874838        1.0773801067
 C         -5.8564206226       -3.3919187087        2.2191846251
 C         -3.5916587806       -1.7508344004        1.6072712322
 C         -2.5623820549       -0.9221179166        1.2887765158
 C         -1.3370802333        2.0272062074       -0.8250247745
 C         -1.5209926492        1.6849890970       -2.2757554491
 C         -0.2199848304        1.3565108487       -1.6113575684
 N          0.1873916265        0.0009143955       -1.3658821715
 C          1.5139384496       -0.0991119431       -0.7846605688
 C          2.6782711489        0.0142394398       -1.7959898753
 C          3.9959411221        0.0940344858       -1.0849886452
 C          4.5830572866        1.3207631048       -0.8063700991
 C          5.8045527032        1.3958826963       -0.1567920567
 C          6.4660398551        0.2411825438        0.2399287408
 O          7.6552300055        0.1917356870        0.8653952077
 C          8.3485260335        1.3901715483        1.1285467723
 C          5.8654147772       -1.0227367200       -0.0257805317
 O          6.5706242468       -2.0889603055        0.3967572854
 C          6.0754930577       -3.3852658057        0.1589089373
 C          4.6450014949       -1.0710506197       -0.6822815222
 C         -0.0433767673       -0.9485050890       -2.4426507527
 C         -3.3514454643        2.2993431430        0.6828335907
 C         -4.1145668638        1.7769314788        1.8984107087
 C         -3.0251723588        3.7769039683        0.9098789563
 H         -3.8892186255        0.4245977489       -1.5887223623
 H         -6.1912442621        0.7662792832       -1.9023290253
 H         -7.2563959958       -0.5411130603       -2.4720233686
 H         -5.5435204735       -0.5288986055       -2.9532821300
 H         -5.7752778931       -2.8058379911        3.1388800810
 H         -6.8228784259       -3.8913410274        2.1927979521
 H         -5.0597025558       -4.1402635379        2.1882966443
 H         -3.5192195007       -2.3632005064        2.4923329031
 H         -1.6912220592       -0.9087866395        1.9236573171
 H         -1.1288385246        3.0721625622       -0.6323120484
 H         -1.6985283540       -0.4414816781       -0.5436495508
 H         -2.1645573130        0.8686579921       -2.5511611383
 H         -1.5359409892        2.4942075716       -2.9905736548
 H         -0.2213082629        0.7550970265        1.2139121955
 H          0.6102206104        2.0198196391       -1.8497415647
 H          1.5851790849       -1.0624232209       -0.2701771782
 H          1.6228293529        0.6946166445       -0.0414878179
 H          2.5358370127        0.9100511462       -2.4031446856
 H          2.6689663608       -0.8545864290       -2.4548853649
 H          4.0944298920        2.2335486295       -1.1118105837
 H          6.2404752067        2.3633793886        0.0317320483
 H          7.7823072116        2.0417626347        1.8009154573
 H          8.5792160465        1.9293051357        0.2049085932
 H          9.2759370505        1.0905816756        1.6130202476
 H          6.8196948901       -4.0626539093        0.5733373349
 H          5.1178003525       -3.5471002334        0.6637516455
 H          5.9634541070       -3.5817987297       -0.9116758148
 H          4.1902071245       -2.0240752977       -0.9029451888
 H          0.4263768241       -0.6458019618       -3.3846125194
 H         -1.1114389017       -1.0683777713       -2.6211428976
 H          0.3564787401       -1.9147933721       -2.1400720383
 H         -4.0128016658        2.2390418111       -0.1887891505
 H         -3.4727007518        1.7921297457        2.7735802979
 H         -4.4825518966        0.7689260286        1.7405657886
 H         -4.9703464265        2.4189087835        2.0911034651
 H         -2.2678134276        3.8836365358        1.6800029286
 H         -2.6936788155        4.2697223995        0.0000212389
 H         -3.9237645675        4.2879793513        1.2455846337
 H         -0.4123692291        1.9932906383        3.1835111366
