72
 energy: 12.572632099973 xtb: 6.6.1 (8d0f1dd)
N           -1.52835007117384        3.02874128526753        2.22992195336523
C           -1.62336264310133        2.23402791157005        1.25677663122524
C           -2.80897515039514        2.08797180334761        0.34203402408881
C           -3.34060524316040        0.67481374525669        0.44863040142995
C           -4.33237259866340        0.29061475394024       -0.46140729814223
C           -4.83168432844232       -0.99268508603126       -0.50246612464387
O           -5.78431324664537       -1.43690271760734       -1.36821266061233
C           -6.39491645324550       -0.51887058408714       -2.23347017778766
C           -4.33930953606880       -1.95930362755220        0.39835124779569
O           -4.89756639761507       -3.19837756355101        0.27999832788601
C           -4.53522918514974       -4.17629468529120        1.21721926237434
C           -3.37533880741337       -1.58362986943089        1.31423765317607
C           -2.88867915855092       -0.27798470888560        1.34887252736108
C           -2.18905110533667        2.24151060083231       -1.37243674957671
C           -1.32124979379195        1.04687891858186       -1.70447708734147
C           -0.01299385279183        1.07512913451068       -1.01506135419144
N            0.62014502198240       -0.08910087207068       -0.56684964301804
C            1.99331361665066       -0.05976252020460       -0.17533423112509
C            2.93950184968700       -0.58119650881615       -1.28046612477732
C            4.36214144151636       -0.46587838900356       -0.84084687954087
C            5.06964911070188        0.70472282240337       -1.03871730711960
C            6.37520269965258        0.82888557767074       -0.58650145121511
C            6.99096410068407       -0.21714376089716        0.07801207535224
O            8.27293415553414       -0.21268481239614        0.55098113268188
C            9.05512084574765        0.93325930799573        0.33872287446661
C            6.27065605290497       -1.41194491575323        0.30081561033764
O            6.95944754753920       -2.39033053110167        0.95391019949879
C            6.32597159731236       -3.62253718398039        1.17884323437953
C            4.97075946596934       -1.51738968054781       -0.15466411324678
C           -0.05677473634887       -1.35145828165061       -0.62836167380350
C           -3.94959529953944        3.07165576216505        0.66890872344051
C           -4.48060000282299        2.97165276731294        2.09405337913209
C           -3.47519146188220        4.49180174415866        0.42247938024499
H           -4.70810783252031        1.02167852487641       -1.15648272605863
H           -6.87873923819559        0.29305603856473       -1.68150302430086
H           -7.15114144315093       -1.08394075010415       -2.77648974766783
H           -5.67727678337080       -0.10360936280146       -2.94900341942326
H           -4.75893689755630       -3.85637440368721        2.23897319350877
H           -5.13756812269902       -5.04873529449912        0.97033970415340
H           -3.47192715075262       -4.43115946905084        1.14290354116629
H           -2.99554681567727       -2.29674703659173        2.02831766106967
H           -2.14691671307715       -0.03742004032632        2.09522491762489
H           -2.96036303227594        2.28452947613878       -2.15043938682169
H           -1.56753250107268        3.13285033853465       -1.49286485115192
H           -1.90547081182297        0.17904572302559       -1.40645485597225
H           -1.17186178908820        1.07017300475132       -2.80127674494496
H           -0.79370523420734        1.56983190555424        0.94195797312410
H            0.63008736628487        1.94698173453658       -1.09219333564464
H            2.12268399221713       -0.65889132029879        0.73279386107847
H            2.26903349048006        0.96932744503391        0.06692504209774
H            2.76504254478285        0.01077346214002       -2.17941592670859
H            2.68388700619291       -1.61977745884006       -1.49470351869254
H            4.60735334545824        1.53361941116755       -1.55528562133363
H            6.90549899247944        1.74996266169425       -0.76992407729115
H            8.62724327081561        1.81323297436299        0.83194289248158
H            9.18451586808563        1.14515333593761       -0.72853816611063
H           10.02400847526013        0.70910299409173        0.78224306618117
H            7.06563376583576       -4.24191945886232        1.68496947544729
H            5.44530874140304       -3.51795619523530        1.82291770943145
H            6.03317232016240       -4.10583938268922        0.24094302316912
H            4.40777803442869       -2.42388531303970        0.00951395621669
H           -0.22007450100463       -1.67872747914611       -1.66204807549143
H           -1.03220039672584       -1.27614239603707       -0.14017724444105
H            0.53687936620682       -2.09916627887905       -0.10648957037133
H           -4.79058706023716        2.86714913919552       -0.00085342262517
H           -3.69091451268788        3.19428822133371        2.79971797980564
H           -4.87100809489567        1.98055880824195        2.30378440442936
H           -5.28887693112967        3.69298549670524        2.21257249616611
H           -2.64667485049801        4.70469597382293        1.09236267679027
H           -3.14086042367179        4.59748389064746       -0.60294287330307
H           -4.29076676571687        5.18159649497088        0.61608376899065
H           -0.61867331860407        3.00914088807892        2.68815593044728
