72
 energy: -0.613828725937 xtb: 6.6.1 (8d0f1dd)
N           -1.51482753513111        2.92386918306879        2.23366013181338
C           -1.59414067569991        2.19500190417248        1.21151635655202
C           -2.78147507420704        2.08725813959542        0.28581995473729
C           -3.33176269906308        0.66806455839984        0.39764968090401
C           -4.32159052174416        0.27397847602035       -0.50771944901875
C           -4.83941986991232       -1.00405487658402       -0.51372140386288
O           -5.79860967298543       -1.45852788899406       -1.36715129609898
C           -6.39664881668371       -0.55569264448982       -2.25814511003700
C           -4.36352162213493       -1.95201918462640        0.41640514268883
O           -4.93577281144254       -3.18639596731300        0.33175813884699
C           -4.58638646715140       -4.14619064487943        1.29321938392077
C           -3.39499755666718       -1.56601390880147        1.32263270276017
C           -2.88994285365196       -0.26748674133990        1.31930200138396
C           -2.20599393526596        2.25862697151838       -1.27975460195026
C           -1.29765081408480        1.10315157339971       -1.69128216573811
C           -0.00831129516879        1.10966549159557       -0.96138144528026
N            0.62484288532128       -0.06621016173845       -0.56011374293306
C            1.99790794751094       -0.04901208484715       -0.16577633443310
C            2.93750171070214       -0.56450510057625       -1.27922783865885
C            4.36131697742929       -0.45266231812307       -0.84009177100118
C            5.07245166749732        0.71534633939019       -1.04017753696955
C            6.38007822019667        0.83446104173932       -0.59293809770384
C            6.99375244708748       -0.21370980136038        0.06948634154472
O            8.27463956109801       -0.21233656676397        0.54091771481582
C            9.06082671709870        0.93142587520583        0.33109816550105
C            6.27075363375797       -1.40713781262201        0.29225451894509
O            6.95721648644065       -2.38747651332734        0.94418937935057
C            6.32257795066587       -3.61947815105252        1.16797965669688
C            4.96912872592723       -1.50780545811371       -0.15883132762344
C           -0.05395461351244       -1.32913562117249       -0.62402359989027
C           -3.91871579447383        3.07424216388415        0.62977309798208
C           -4.48716412785938        2.89225120039702        2.03259987305401
C           -3.44306728950189        4.50836415140739        0.47360820345114
H           -4.68981795877281        0.99177262293187       -1.22050665160078
H           -6.86873231283284        0.27912918209941       -1.73072236095079
H           -7.16158997439392       -1.12569695320791       -2.78315035462228
H           -5.67487364727209       -0.17000706681878       -2.98587809648929
H           -4.80830802480044       -3.80004762982866        2.30725302470382
H           -5.19860278291563       -5.01709051726951        1.06595074003160
H           -3.52685346605992       -4.41739626827000        1.22729676227904
H           -3.02628360474307       -2.26463529900373        2.05694528534033
H           -2.14698001236508       -0.01269556168090        2.06011292222684
H           -2.98955654639566        2.32195744273716       -2.03827521507336
H           -1.60569487366676        3.17313634325089       -1.37135699013957
H           -1.86269236922638        0.19626680675344       -1.49327401609160
H           -1.10931081727853        1.20084408495124       -2.77398898551307
H           -0.74660756426726        1.60184413240679        0.81493082949665
H            0.63928347064507        1.97140787261764       -1.03105347027187
H            2.13245594845816       -0.66441256704193        0.73432362304911
H            2.28324529644768        0.97522110776957        0.08574832113919
H            2.76451546590552        0.03381481264121       -2.17448850252943
H            2.68237192230591       -1.60160402490538       -1.50155481087745
H            4.61287908592848        1.54515196518649       -1.55718723164144
H            6.91326585490514        1.75343098686387       -0.77745652450370
H            8.63659865077942        1.81208428641123        0.82598950606666
H            9.19117014880320        1.14376604422073       -0.73582886126871
H           10.02887592365511        0.70249486962130        0.77396742435242
H            7.06216799558934       -4.24017815685511        1.67227632032726
H            5.44290681880699       -3.51416368733373        1.81301049033025
H            6.02845694005994       -4.10101423035346        0.22939631949956
H            4.40575515086400       -2.41438566234260        0.00312656778736
H           -0.22065489864019       -1.65495777494563       -1.65749280186271
H           -1.02616769153336       -1.26188432198777       -0.12779965742667
H            0.54588390082438       -2.07885802563827       -0.11182363823202
H           -4.73599666705834        2.90443732229210       -0.07760118407337
H           -3.71725611796127        3.07859028297672        2.77122926476992
H           -4.87420892366006        1.88820857337884        2.17323873151783
H           -5.30351737469794        3.59865086780456        2.17691683274586
H           -2.62790223949801        4.69517964363708        1.16625889445158
H           -3.09821438683002        4.68693186089353       -0.53827139974126
H           -4.26502428052127        5.18296417153106        0.69358152882294
H           -0.61121693831099        2.91055867934268        2.70463647414056
