72
 energy: 57.207053587513 xtb: 6.6.1 (8d0f1dd)
N           -1.47067030301394        3.53009102595977        2.04337060488995
C           -1.83386419987996        2.32855757406988        1.73520697029442
C           -3.08510041965717        2.02592226060554        1.16587357085551
C           -3.43954985376741        0.67511294287632        0.85401450347033
C           -4.40507465592054        0.36901471869235       -0.14167773616881
C           -4.77277267334049       -0.92522289863646       -0.42972671135506
O           -5.68963929709740       -1.28975181791434       -1.37786086257171
C           -6.40710366213674       -0.29618602482247       -2.05794535851903
C           -4.18322639013664       -1.99980275157006        0.27375844025425
O           -4.63897340511553       -3.24758835785987       -0.04553720124792
C           -4.19644169282031       -4.33765447000324        0.71862639669101
C           -3.23350296908349       -1.71428481891933        1.23831079709722
C           -2.85909097415677       -0.41629873358842        1.51608331019982
C           -1.79493050217548        2.16523291181235       -2.49048422678417
C           -1.32859423816740        0.91940316169768       -1.88918076311728
C            0.01624588456372        0.88953541528643       -1.33092232974211
N            0.55034229795446       -0.12247564567858       -0.62503506494943
C            1.93253271490363       -0.07138521324968       -0.21901588941915
C            2.91030999991275       -0.66673066688373       -1.26095574892252
C            4.33230644592298       -0.52459975524386       -0.79356447871475
C            5.02856774049608        0.64974898255536       -1.00584814494541
C            6.33240937134078        0.79384737538563       -0.55349612366489
C            6.96166717671725       -0.23703401429857        0.11933800209825
O            8.23680359068649       -0.20822570800849        0.59818840489521
C            9.01014301888170        0.94667090778747        0.38533004412058
C            6.25956197607570       -1.44295561663668        0.34305424394204
O            6.96049067093208       -2.40259649384512        1.00891454089103
C            6.35208751042670       -3.64638262638886        1.24133539272308
C            4.95936752064698       -1.56672954814336       -0.11061870449816
C           -0.10385551443405       -1.40138620846111       -0.64594296258641
C           -4.11895459617416        3.10699443443628        1.04030243084066
C           -4.43883364746475        3.56815844862432        2.44776442547110
C           -3.67497652915647        4.28850594863172        0.16554462077778
H           -4.84585980191374        1.17227029844110       -0.71260529134453
H           -6.96467460097512        0.34354656757946       -1.36342969211926
H           -7.10847515228511       -0.82211909120206       -2.70535151491700
H           -5.73994326119343        0.30452999332198       -2.68440791253385
H           -4.42995721032944       -4.21622677320188        1.78141899448145
H           -4.73683782154792       -5.20177200295527        0.33439819287232
H           -3.11761523972210       -4.50197531254315        0.59144401476942
H           -2.79449050198310       -2.50039116574861        1.82556142749304
H           -2.15495658624354       -0.24011315247139        2.31041597359718
H           -2.67276720433124        2.15379109428516       -3.09393128651310
H           -1.19930615106207        3.04185188114480       -2.41067654372341
H           -2.06560083199272        0.60572308669281       -1.12447541985458
H           -1.39480224424662        0.18467308786925       -2.68009273332266
H           -1.13309042858776        1.47788603147833        1.78149045969185
H            0.56773328341336        1.81338883035496       -1.30677026180307
H            2.02507694922603       -0.61475616819481        0.72553861337329
H            2.20445954932649        0.97171124991584       -0.04333513597158
H            2.77606693340448       -0.13643901700716       -2.20539534736272
H            2.67679082540436       -1.71997897876982       -1.42599627300531
H            4.56347243704793        1.46757719111787       -1.53507843701231
H            6.84840624951512        1.72283306059151       -0.73627581566544
H            8.56969425889436        1.82230533481761        0.87569075090612
H            9.14229937249360        1.15492501197658       -0.68114832956175
H            9.97738761751598        0.73235980615972        0.83550091487195
H            7.10507815339433       -4.24396379823218        1.75669413753807
H            5.46752879813671       -3.55208661610788        1.88061353926247
H            6.07505756485746       -4.14515161688230        0.30714605719328
H            4.41771873316255       -2.48592370408727        0.05250333378779
H           -0.22500299341438       -1.78109739227229       -1.66716394128568
H           -1.09797260175362       -1.30638374581589       -0.19941117139828
H            0.48218733512285       -2.11429597822508       -0.07129060623570
H           -5.02706775209547        2.67975963697356        0.60216747093262
H           -3.54551887666548        3.96652217124280        2.90192461647846
H           -4.78864864501075        2.72375076229375        3.04688225651155
H           -5.20392904227846        4.33782281524733        2.39409745346088
H           -2.78122120024520        4.72641379137653        0.61977582357461
H           -3.45635291784435        3.94196864839269       -0.84655695307759
H           -4.44678687123479        5.06336708689576        0.13070442363332
H           -0.55131801395920        3.59244585075192        2.47761022163679
