72
 energy: 60.071870048848 xtb: 6.6.1 (8d0f1dd)
N           -1.52141941780320        3.32821967063634        2.20167536343531
C           -1.75069898911034        2.28667236115973        1.50394858620525
C           -2.97842523861841        2.04378605029911        0.85229154766703
C           -3.38644268347750        0.68312170115668        0.66604666115783
C           -4.37380174721073        0.33992806160605       -0.28963770531609
C           -4.80372309386057       -0.95275542736693       -0.45911470162667
O           -5.73715374930018       -1.35784233094934       -1.36755688858709
C           -6.39749565621783       -0.39560125188494       -2.14067404100034
C           -4.25467537183931       -1.98520663491972        0.33118586719721
O           -4.76389406603283       -3.23612797923929        0.10174170749272
C           -4.35392947142258       -4.27318688554201        0.94978301737406
C           -3.29434287527913       -1.65953470154411        1.27310658579805
C           -2.86191093913614       -0.35673340123090        1.43969837030344
C           -1.98620977363929        2.20762516967425       -2.01293022613716
C           -1.36561131667616        0.90715853795286       -1.72543718140564
C            0.00089301972651        0.92586915839931       -1.20668217817393
N            0.59499697595631       -0.13119172752257       -0.64380976049844
C            1.96688862141337       -0.07825927084691       -0.20873044014222
C            2.93519119046695       -0.63513041080338       -1.27677179175066
C            4.35693225107939       -0.50465739563601       -0.82173508693314
C            5.05295698539554        0.67084787038145       -1.02402143189076
C            6.35531637106835        0.80912278037528       -0.56508644437971
C            6.97962165029720       -0.22850857052039        0.10553681924362
O            8.25549483623209       -0.20994063634638        0.57945827884489
C            9.03221351606389        0.94124309510688        0.36471338720707
C            6.27077455433585       -1.43163511949199        0.32729536716929
O            6.96511656662657       -2.39885718915711        0.98745167449694
C            6.33857131859644       -3.63392885974785        1.21597492987845
C            4.97198276483967       -1.54904119974159       -0.13289132971728
C           -0.07743771738260       -1.40536429137937       -0.64615595800381
C           -4.04896802437169        3.09609077861674        0.86405345291425
C           -4.46230864256272        3.29442728793899        2.30534603642874
C           -3.58020028649425        4.40989774012704        0.25862399811710
H           -4.78042490787608        1.11431214608818       -0.92032540132056
H           -6.92136423191792        0.33120930963798       -1.51080624353661
H           -7.12383269716425       -0.94214319741643       -2.74152471985790
H           -5.70027581318511        0.12004956758912       -2.81096919555357
H           -4.58048245246025       -4.05357343094882        1.99721747316944
H           -4.92067309957947       -5.14771635573239        0.63266576022579
H           -3.27948904459836       -4.47390138012927        0.84605671453377
H           -2.88514309327591       -2.41236505431846        1.92284031857662
H           -2.14774304703559       -0.14313522970415        2.21712965484467
H           -2.81510101871716        2.19804464076502       -2.68766941413455
H           -1.36534226117628        3.07163831863099       -2.00280482674545
H           -2.04319478593675        0.30438930429980       -1.10634956207657
H           -1.31276647661048        0.57201473476498       -2.75764177909687
H           -0.97884846961041        1.50245921458971        1.38448434855273
H            0.59246043345677        1.84164790112996       -1.27358306752721
H            2.05879657260255       -0.64114794176793        0.72143386677013
H            2.23297547164153        0.95815249055875       -0.00057090811198
H            2.77339972261525       -0.07003531691130       -2.19653837731827
H            2.68755213396662       -1.68038115590192       -1.46645740983328
H            4.58622293768248        1.49358141518779       -1.54759702278853
H            6.87510486056883        1.73619855767192       -0.74869063461658
H            8.59493568164069        1.81846536436345        0.85427514842940
H            9.16220114972115        1.14999266510457       -0.70250720620617
H           10.00174137928875        0.72881154102606        0.81183362755996
H            7.08026080733952       -4.24521744401506        1.72935588941304
H            5.45526869102987       -3.53151001791447        1.85669708362674
H            6.05311869959596       -4.12421311596564        0.27994100177831
H            4.41494469269773       -2.45889351887112        0.03172035720931
H           -0.22236561765183       -1.75988723951551       -1.67051810496547
H           -1.06230827897726       -1.31323399420739       -0.17969045753555
H            0.50248242135896       -2.13586101433449       -0.08784008889039
H           -4.92840401845231        2.75412798567689        0.31083432927871
H           -3.60687164277279        3.61091368740464        2.88219633599902
H           -4.83840901267137        2.36259597005131        2.72230335704725
H           -5.24151813380429        4.04706438245564        2.32782948917895
H           -2.71260322945162        4.73651723883236        0.83170592561936
H           -3.31349754235443        4.25968903433639       -0.78287966271766
H           -4.37103619577409        5.15013057793255        0.34297415338561
H           -0.60201651266464        3.35366578981844        2.62019461300628
