72
 energy: 52.854811673963 xtb: 6.6.1 (8d0f1dd)
N           -1.54136010589208        3.22491094590888        2.23556371523357
C           -1.70046612825366        2.28052685761648        1.38886786723384
C           -2.91135045389669        2.06271541549815        0.64877871000673
C           -3.36046100610427        0.67998686451741        0.57016598222089
C           -4.35271424442546        0.32152601142065       -0.36431419643569
C           -4.81269552853874       -0.96911935114317       -0.47919211723878
O           -5.75818369279368       -1.39154801416476       -1.36703664188640
C           -6.39451870736738       -0.44707997725418       -2.18196696093410
C           -4.28978838939968       -1.97492553831637        0.35946616783925
O           -4.82230402129890       -3.22277471558764        0.17690694697433
C           -4.43292300851370       -4.23440468682478        1.06426610297506
C           -3.32755434880492       -1.62936024482394        1.29099950238198
C           -2.87139185713537       -0.32377949241231        1.40258404971612
C           -2.08057440816215        2.22202962772333       -1.73901546960391
C           -1.34467942155858        0.94444456976168       -1.71362453825800
C            0.00239297582785        0.97978934089382       -1.12581093460233
N            0.61012283681565       -0.12455047498663       -0.61499522678453
C            1.98306597276153       -0.08069021376715       -0.19513496020995
C            2.93883704069825       -0.61462026503075       -1.28083363365338
C            4.36179575504991       -0.49164064915047       -0.83645650654344
C            5.06090754699756        0.68344745032683       -1.03366115723571
C            6.36360128290037        0.81749346216817       -0.57416948310916
C            6.98395931778169       -0.22345709994817        0.09511579768505
O            8.26391202963321       -0.21159651265447        0.57125142901897
C            9.04245321883878        0.93750836688149        0.35438678600687
C            6.27000158961550       -1.42263972570499        0.31757063491542
O            6.96214941229681       -2.39484690410965        0.97333762499971
C            6.33274172427011       -3.62892810262902        1.20072582107872
C            4.97205935724991       -1.53650604790779       -0.14407834014891
C           -0.06563183257357       -1.39306968661433       -0.63699584714650
C           -4.01280736995032        3.08339638367537        0.78083007180172
C           -4.47911266457175        3.15240498545788        2.22442796887227
C           -3.53632383653531        4.45023249816903        0.32405193210724
H           -4.74566543412275        1.07914135958390       -1.02175181900175
H           -6.90133337433407        0.31784356775232       -1.58466581974158
H           -7.13364256249227       -1.00153517117590       -2.75968108802881
H           -5.68683847661972        0.02581450845052       -2.87221840863187
H           -4.65864209865597       -3.97048725651601        2.10136011378767
H           -5.01470304940151       -5.10925492007469        0.77820787356460
H           -3.36255120725401       -4.45784251238191        0.97361208184887
H           -2.93326648221563       -2.36693410013025        1.96936074967371
H           -2.14441836246940       -0.09777933778949        2.16608857389243
H           -2.88210052975576        2.22446244624432       -2.46106058102743
H           -1.45615539446812        3.08707319262809       -1.79280223671188
H           -1.98693364930417        0.21515047698553       -1.21322684872033
H           -1.26561934396951        0.77457941980406       -2.80789623281714
H           -0.89767091386842        1.53341471223680        1.20147032009487
H            0.60909388152989        1.89178505264697       -1.20562634318863
H            2.08922504793516       -0.65359794651126        0.72733439614020
H            2.24358733917410        0.95630172684270        0.02890617991139
H            2.76770733672806       -0.03526603258437       -2.18902501151411
H            2.68618793155003       -1.65599551765753       -1.48102091375644
H            4.59557125336009        1.50990105402925       -1.55238602741480
H            6.88785255912031        1.74227496988159       -0.75685266360627
H            8.60866456471213        1.81625621995486        0.84435638977168
H            9.17129584637616        1.14749325217852       -0.71327656611409
H           10.01215869621148        0.72100720682584        0.79973399206214
H            7.07354194108670       -4.24394929445584        1.71076260250314
H            5.45057739209706       -3.52555112190398        1.84285887292076
H            6.04350950776100       -4.11626436647755        0.26417448775784
H            4.41148581215563       -2.44382882819719        0.02240259628583
H           -0.22324125072403       -1.72576681209465       -1.66795031359618
H           -1.04568496097169       -1.30229746922784       -0.16135360558752
H            0.51825084507217       -2.13619342643126       -0.09725551353813
H           -4.88111720502005        2.79691631420331        0.17258572167182
H           -3.64531242717306        3.43188027703853        2.85353961726751
H           -4.85965485634640        2.18796965789383        2.55511796172482
H           -5.27071926492634        3.89338949406107        2.28674295049276
H           -2.68221667073612        4.72564585011803        0.94056149117211
H           -3.23403344810705        4.40710106539993       -0.72018323040598
H           -4.33938604917214        5.17023827676281        0.45818537928088
H           -0.61012797518662        3.21709130933532        2.64365878369648
