72
 energy: 45.796882008349 xtb: 6.6.1 (8d0f1dd)
N           -1.53692034905046        3.18079778128268        2.23169477459590
C           -1.67588190416153        2.28200927606559        1.34123141082382
C           -2.88336272160359        2.07270961250398        0.56196366140136
C           -3.35387845945426        0.68021069316177        0.53909765388612
C           -4.34703761953761        0.31408260734375       -0.38832529295956
C           -4.81746969974494       -0.97504551397141       -0.48493590351691
O           -5.76408411113029       -1.40311855631047       -1.36812828253392
C           -6.39382192814655       -0.46459747941148       -2.19524207352758
C           -4.30202748911044       -1.97115456105571        0.36954977983863
O           -4.84079765813431       -3.21714756234779        0.20254853764279
C           -4.45869416275352       -4.22052296419727        1.10273305787149
C           -3.34026829443875       -1.61708981661275        1.29794890351475
C           -2.87902943122861       -0.30939489657725        1.39301586752793
C           -2.11548903285446        2.22575510512242       -1.63801464117704
C           -1.34079573616332        0.96663397874865       -1.71144169689642
C           -0.00010529508037        1.00099248177077       -1.10017654245365
N            0.61358091427813       -0.11939058234407       -0.59918544888564
C            1.98659579229805       -0.07663668068514       -0.18958250657337
C            2.93919765391849       -0.60601251185566       -1.28094207366629
C            4.36220884995483       -0.48499504813495       -0.83828050293364
C            5.06345365631513        0.68883579535801       -1.03536225571684
C            6.36682581661956        0.82029303301464       -0.57720774654382
C            6.98593546480754       -0.22191275209836        0.09101541475059
O            8.26639067500838       -0.21193755832090        0.56713901762227
C            9.04561562410924        0.93638094511789        0.35063877647649
C            6.26996319766763       -1.41976172596760        0.31357598084143
O            6.96133435853345       -2.39373287901720        0.96837332067979
C            6.33085997675098       -3.62729156257775        1.19539771708270
C            4.97172584613820       -1.53159036705463       -0.14721892152902
C           -0.06366138873234       -1.38465597538235       -0.63451619968860
C           -3.99751178514070        3.07903603892564        0.75146906284224
C           -4.47976351018464        3.10501633192773        2.19260240953284
C           -3.52168752658805        4.46257839213094        0.34843623285315
H           -4.73517951615401        1.06476036663086       -1.05613222643207
H           -6.89471005842015        0.31208320638291       -1.60846592014556
H           -7.13738890210311       -1.02147451077426       -2.76457602530673
H           -5.68342340166137       -0.00579946233370       -2.89186589234512
H           -4.68418633698093       -3.94204164103598        2.13601442893797
H           -5.04589843129187       -5.09479168808299        0.82655426465127
H           -3.39002133158592       -4.45194989663859        1.01633740638377
H           -2.94853402939235       -2.34941897491856        1.98419275615113
H           -2.14467401838653       -0.08181219155232        2.14906329687293
H           -2.90608409399307        2.23726190457636       -2.37935661039696
H           -1.49187557369832        3.09542750058268       -1.71772804508630
H           -1.96734906577386        0.19511397825043       -1.25999782237535
H           -1.24263456345740        0.84915068200813       -2.81116640278336
H           -0.87163380312779        1.54009260184729        1.13641606968694
H            0.61469001741570        1.90465485091669       -1.17636006589359
H            2.09905915922177       -0.65527341631846        0.72934923402053
H            2.24923641497872        0.95922381225673        0.03829305775956
H            2.76619334205081       -0.02311756971706       -2.18638206314044
H            2.68542594328190       -1.64660864003508       -1.48465026072968
H            4.59882731555624        1.51594834296008       -1.55346550271090
H            6.89242744688646        1.74430484748913       -0.75978972204342
H            8.61317716181424        1.81549367928396        0.84120940110206
H            9.17437934747918        1.14671237685821       -0.71701361425055
H           10.01522012509634        0.71822065173247        0.79539807949227
H            7.07130838062238       -4.24336522395638        1.70459568304693
H            5.44907197068984       -3.52348931422408        1.83802710616600
H            6.04075987223731       -4.11379885822956        0.25860630698606
H            4.41036796865616       -2.43863571619812        0.01875676217017
H           -0.22281856182401       -1.71350033887843       -1.66685377400753
H           -1.04226311316975       -1.29688291810326       -0.15622323004991
H            0.52234056914509       -2.12938753548898       -0.10018742297112
H           -4.85904454948053        2.81296727303041        0.12708330691891
H           -3.65678629340120        3.37222541808115        2.84122068721181
H           -4.86302823411165        2.13286750794117        2.49376625517150
H           -5.27583348478560        3.84148592519260        2.26845898135670
H           -2.67363136524856        4.72243421690162        0.97851391986494
H           -3.21036108698602        4.45609121605802       -0.69218417163634
H           -4.32756590310077        5.17527979659616        0.49761808461130
H           -0.61178583368814        3.16595087876456        2.65447379556712
