72
 energy: 59.074358434848 xtb: 6.6.1 (8d0f1dd)
N           -1.48988835716441        3.44320979611107        2.11914599008164
C           -1.78969931122518        2.30364913627834        1.61813714298365
C           -3.03055640891500        2.03472837816917        1.01344269915866
C           -3.41230349243312        0.68138543378340        0.75971556901623
C           -4.39111380571331        0.35534126438063       -0.21505711947028
C           -4.79200139497148       -0.93909909116022       -0.44126373579075
O           -5.71139530122369       -1.32586413764807       -1.37582470059651
C           -6.40234286458026       -0.34634919259658       -2.09944232391526
C           -4.22082711394586       -1.99494691719042        0.30251847556720
O           -4.70199015235596       -3.24249521681605        0.02934579393264
C           -4.27415166892624       -4.30683893336386        0.83508257665568
C           -3.26463541450811       -1.68771133279854        1.25484773072387
C           -2.85766656575907       -0.38760775011725        1.47600035770402
C           -1.88798106605913        2.19087985825577       -2.25771978874903
C           -1.34197867970879        0.91118939594750       -1.80446765607801
C            0.01501605489535        0.89466513137969       -1.27579641248154
N            0.57198683239421       -0.12875494127619       -0.63336549179925
C            1.94982284055695       -0.07510626272725       -0.21805826938648
C            2.92341921017394       -0.65241772306430       -1.27110997514652
C            4.34605250012365       -0.51599093576776       -0.80730731432988
C            5.04112500526197        0.65953523775785       -1.01481446944709
C            6.34375027082406        0.80153943083430       -0.55817636590457
C            6.97002769592102       -0.23304457091116        0.11274954263870
O            8.24383976534299       -0.20886351269704        0.58640460977513
C            9.02095975691008        0.94375071751486        0.37522983727725
C            6.26594684230686       -1.43838913938878        0.33585372200187
O            6.96033910353744       -2.39877596167124        1.00015235641944
C            6.34485886991065       -3.63974190643429        1.22921980533848
C            4.96665076627867       -1.55931413112279       -0.12184823027468
C           -0.08969942819356       -1.40308972918304       -0.64670600966861
C           -4.07868774676192        3.10014719690297        0.94926112698062
C           -4.44520720978344        3.43322433984074        2.37521947318408
C           -3.62845152675064        4.35624402149011        0.20195516283628
H           -4.81230053250405        1.14461504997650       -0.81795137833448
H           -6.94361378337006        0.33678511189719       -1.43592642605646
H           -7.11561742089219       -0.88257719489187       -2.72417803123154
H           -5.71966687125620        0.21221943951549       -2.74660466985367
H           -4.50433335321471       -4.13739575991952        1.89128353716629
H           -4.82612912678366       -5.17736868915636        0.48466101917517
H           -3.19802703882244       -4.48920354097192        0.71790126972921
H           -2.83865677968423       -2.45548739869679        1.87315404618661
H           -2.14844653647914       -0.19271780716997        2.26273633633786
H           -2.74103757564057        2.17667366159258       -2.89373111350820
H           -1.28378139407990        3.06302386394800       -2.20753406778500
H           -2.04252882580644        0.45709606670852       -1.09001508497052
H           -1.36312518075264        0.36381718709756       -2.73418860054893
H           -1.06057308123110        1.47101854352395        1.58380354244191
H            0.55925743695216        1.82797834672349       -1.25953472982454
H            2.03875040480353       -0.62949130500535        0.71779562396524
H            2.22301836098655        0.96563887620628       -0.02802320537985
H            2.77620787115823       -0.10290875217286       -2.20212465076567
H            2.68435596715639       -1.70201194517122       -1.44873760690046
H            4.57533560045220        1.47930157942682       -1.54226373627786
H            6.86192302437261        1.72970399567113       -0.74075013135977
H            8.58256448526275        1.81972396860281        0.86595264224768
H            9.15331232473313        1.15252760865038       -0.69117770504643
H            9.98914458534722        0.73036006210012        0.82474211945716
H            7.09205819885195       -4.24427141587224        1.74420648025860
H            5.46076712441460       -3.54223476253767        1.86860255587964
H            6.06487210085222       -4.13392678560814        0.29355165380953
H            4.41663531555861       -2.47326060237821        0.04184408381530
H           -0.21774162539288       -1.78689067018749       -1.66517905537471
H           -1.08267791626564       -1.31501461573091       -0.19463056915791
H            0.50134722867456       -2.11091443050946       -0.07592820615277
H           -4.97517132237772        2.71325008769673        0.45558739004217
H           -3.57646875060895        3.79409429850297        2.89458232368837
H           -4.81169871100832        2.54279947205260        2.88402555621912
H           -5.21414057644743        4.19593960793984        2.35485084796525
H           -2.74759948783785        4.73977621705164        0.72249108152354
H           -3.38244130351156        4.10048334037345       -0.82659916679328
H           -4.40844012633966        5.11607698666529        0.22940232016437
H           -0.58470962857382        3.48450215032850        2.57282028214066
