72
 energy: 54.968524379294 xtb: 6.6.1 (8d0f1dd)
N           -1.48722340018812        3.50837639005456        2.10264908224506
C           -1.86307790052042        2.30633649395297        1.81642077189701
C           -3.15255467846241        2.00035732069437        1.33689253492029
C           -3.47361244420751        0.65517298573200        0.95876074627489
C           -4.41930686905948        0.37168196070393       -0.05790598550995
C           -4.75356025191488       -0.91796972387864       -0.41029218462146
O           -5.65149370508407       -1.26182391725805       -1.38215891118663
C           -6.39465018100789       -0.24871001137305       -2.00657290835422
C           -4.14769063230607       -2.01296217602079        0.24979849180819
O           -4.56322668158614       -3.25590354240423       -0.15028889338048
C           -4.09459016212907       -4.37692015166742        0.54440116285420
C           -3.20116925202998       -1.75323724690451        1.22830237582878
C           -2.86977273197850       -0.45482216475813        1.57302679400091
C           -1.76409190791765        2.14886873905595       -2.55020535918206
C           -1.32098129831567        0.91418693512155       -1.90428048681850
C           -0.00255138909072        0.92643073032922       -1.27899241227007
N            0.56422045228036       -0.12816803308739       -0.67831684174309
C            1.92903903256146       -0.06873492156118       -0.22154239585102
C            2.90508174509623       -0.67197966451712       -1.25247064038816
C            4.32520732156184       -0.52761863342825       -0.78533438577077
C            5.01716179036556        0.64919549140914       -0.99711047904389
C            6.32272825459670        0.79604921538613       -0.54856822534367
C            6.95489626028358       -0.23542761571862        0.12224712038646
O            8.22831886354094       -0.20861537715332        0.59829479269637
C            9.00324226696210        0.94467091407834        0.38979679530513
C            6.25349379668446       -1.44265857057135        0.34882233794830
O            6.95755729736537       -2.40119540722070        1.00956425333593
C            6.35557470754472       -3.64821760676129        1.24449292635603
C            4.95212938187969       -1.56858173804125       -0.10177906285643
C           -0.10486941234377       -1.39840639152450       -0.65822627256312
C           -4.17296410489138        3.10310281765619        1.18381635622562
C           -4.47327141551947        3.74064378658916        2.55352540168377
C           -3.69580822122570        4.17290196782306        0.19364273752662
H           -4.87737222888672        1.19503224932936       -0.58104285409433
H           -6.96378286340586        0.34198765289616       -1.28157715457289
H           -7.08429932659463       -0.76437429446999       -2.67324151149986
H           -5.76309901209634        0.42192016553434       -2.59766734610438
H           -4.32858242949837       -4.32374685522967        1.61265282682420
H           -4.61335666021059       -5.22634353229620        0.10394885548754
H           -3.01679198760650       -4.52273719881417        0.42401217836626
H           -2.73000406524548       -2.56926310114026        1.75714554702379
H           -2.16834292132077       -0.30224423956191        2.37841691360803
H           -2.63854005117805        2.15272396564247       -3.16614300512059
H           -1.15213460728030        3.02912237524545       -2.52494236765238
H           -2.06706652200758        0.63907042050115       -1.13639484950173
H           -1.38410693161757        0.07656817675119       -2.61212500055952
H           -1.16056832365774        1.45467335049897        1.87005251075462
H            0.55661687759684        1.84673779089225       -1.26478032746953
H            2.01601348667824       -0.61164121966261        0.72365063448444
H            2.20335428849674        0.97296945426991       -0.04433918607117
H            2.77131068447099       -0.14788922532066       -2.20102725721812
H            2.66459067239086       -1.72444816879076       -1.40587542129775
H            4.54707476049767        1.46357913170185       -1.52794474011616
H            6.83879300174548        1.72398069732727       -0.73595585226724
H            8.56684090865870        1.82162305108290        0.87937946118361
H            9.13801840349789        1.15482912136400       -0.67686257220015
H            9.97205261559984        0.72856046167434        0.83767523348637
H            7.11058843646752       -4.24279519011414        1.75692416806601
H            5.47329445826971       -3.55937127233917        1.88763580660482
H            6.07728644868632       -4.14704341292888        0.30959882354596
H            4.40985318347284       -2.48768579687680        0.06038906224094
H           -0.23448410512162       -1.79469806805859       -1.67088976189874
H           -1.09465890049296       -1.29768739882839       -0.20166299012287
H            0.48144923981393       -2.10570799205299       -0.07661384550233
H           -5.11510992758181        2.67737154418569        0.81636081251911
H           -3.56584934728737        4.20091641174634        2.93888559221730
H           -4.82776141309493        2.98668399429891        3.26158686332194
H           -5.24605070372719        4.50155493457931        2.45840269802531
H           -2.79096217660153        4.63423136670996        0.57783258854703
H           -3.47743810773509        3.74238426242043       -0.78471237183485
H           -4.45968069933593        4.93887077030746        0.07604571727928
H           -0.52631519075709        3.59197818975291        2.42626701280194
