72
 energy: 57.182428801539 xtb: 6.6.1 (8d0f1dd)
N           -1.53800529706269        3.23152778435150        2.23830254838965
C           -1.72020601682224        2.27278515358464        1.42227113609163
C           -2.93888387470861        2.05290786303816        0.72166605589786
C           -3.37037413917334        0.68026512352017        0.60110596118330
C           -4.36006000488884        0.32886046172606       -0.34084748656570
C           -4.80938041277252       -0.96303700816414       -0.47287753688721
O           -5.75223700356683       -1.37996886230585       -1.36619391919213
C           -6.39574465048380       -0.42963679993334       -2.16788467833331
C           -4.27785155586858       -1.97767084360763        0.34998952410146
O           -4.80325059558496       -3.22740300760265        0.15147800442882
C           -4.40656147777634       -4.24705396455120        1.02599593018423
C           -3.31565533660861       -1.63991441145544        1.28505170991342
C           -2.86598070270294       -0.33593979250369        1.41271879629735
C           -2.04962243095143        2.21407559340416       -1.83434118139046
C           -1.34953588065449        0.92484293684141       -1.70909593707384
C            0.00332837222584        0.96083824080524       -1.15284491287925
N            0.60749829194914       -0.12930488319331       -0.62873384359499
C            1.97935498518097       -0.07997108101933       -0.19835083657609
C            2.93870809367303       -0.62205372991521       -1.27887207216163
C            4.36117739053929       -0.49680725132722       -0.83285262538389
C            5.05859421508059        0.67899690774906       -1.03076131990336
C            6.36110363739649        0.81468057934283       -0.57131629097039
C            6.98305560883142       -0.22520375327418        0.09820237013221
O            8.26164629670999       -0.21110772076328        0.57360876819399
C            9.03924012622986        0.93888723382452        0.35770213638138
C            6.27081817039905       -1.42577320741677        0.32060613113259
O            6.96341898845582       -2.39625899192010        0.97809879728132
C            6.33471812174898       -3.63061586529214        1.20567915186306
C            4.97270857977892       -1.54094247663397       -0.14061095112602
C           -0.06786652218756       -1.39959576093117       -0.63997630777609
C           -4.02803525851510        3.08679511494716        0.80876741855865
C           -4.47609795962584        3.19952039822087        2.25399636928486
C           -3.55215086901836        4.43714510762155        0.30153078401270
H           -4.75685696481332        1.09319251773074       -0.98850295584705
H           -6.90793707933454        0.32380822773465       -1.56018176267377
H           -7.13074090988255       -0.98178133733159       -2.75319241894984
H           -5.69099756099734        0.05721073722884       -2.85178726764560
H           -4.63249543250538       -3.99752789566248        2.06661508287204
H           -4.98317186289755       -5.12206973169641        0.72969976993000
H           -3.33461352889416       -4.46270493633342        0.93093067220057
H           -2.91766693056076       -2.38282964653763        1.95489698447556
H           -2.14653724258304       -0.11156714833062        2.18340169575061
H           -2.85820027569481        2.21257585583588       -2.54128579647200
H           -1.42615690567771        3.07709838741809       -1.86311296204201
H           -2.00559685358444        0.23182745889672       -1.16920993572603
H           -1.27777965225835        0.70877259471505       -2.78659716385264
H           -0.92016406264294        1.52822233524464        1.25211936139870
H            0.60347542311464        1.87804564171747       -1.23324811228352
H            2.07923931400180       -0.64982939117990        0.72616406227245
H            2.23734537222179        0.95664416439800        0.02111938746282
H            2.76945240000337       -0.04758850236214       -2.19063073199524
H            2.68678097347851       -1.66451914407604       -1.47524079421170
H            4.59207384607363        1.50475474892521       -1.54975088288488
H            6.88373502247703        1.74044150393676       -0.75382968947398
H            8.60381038413707        1.81702624003932        0.84738795618634
H            9.16803876524388        1.14871160822194       -0.70989549377663
H           10.00893468481939        0.72387008547000        0.80377310233751
H            7.07582599033174       -4.24479939856271        1.71650565527633
H            5.45215116758669       -3.52769994581650        1.84739334774931
H            6.04642098534716       -4.11860857876741        0.26928203682607
H            4.41283559868024       -2.44870267083805        0.02595697823444
H           -0.22237871565750       -1.73897453585648       -1.66924265596697
H           -1.04989832627935       -1.30533799288551       -0.16789907552908
H            0.51209772710108       -2.14072519278742       -0.09304294955126
H           -4.90320722462808        2.78296397640660        0.21719305317587
H           -3.63160085128870        3.49119742811977        2.86279624326206
H           -4.85419235637354        2.24425248718509        2.61546211083240
H           -5.26349008676924        3.94530448470086        2.30433458962712
H           -2.69240366971825        4.72754787256600        0.90462763894610
H           -3.26023204604788        4.36002993905863       -0.74389443899687
H           -4.35278341115936        5.16366424696295        0.42099432637625
H           -0.60458832512305        3.25679786334535        2.62998061034237
