72
 energy: 56.344751447222 xtb: 6.6.1 (8d0f1dd)
N           -1.48123016187584        3.51963098071544        2.05840247586399
C           -1.85055716813497        2.31534157830635        1.77802165478039
C           -3.10578750040662        2.01777268045094        1.21554569928422
C           -3.45232854246991        0.67046575203432        0.88452310700502
C           -4.41296740833013        0.37219436783616       -0.11837142311436
C           -4.76459204055620       -0.92214663111015       -0.42856557019121
O           -5.68043657738303       -1.28012138529151       -1.37934805434196
C           -6.40845213967754       -0.28100583182603       -2.04321576044133
C           -4.17052697924000       -2.00272412856935        0.26254346448312
O           -4.61919576378829       -3.25157226019671       -0.07123101349976
C           -4.17045900489695       -4.34902183626785        0.67971403643256
C           -3.22351078497953       -1.72358852872598        1.23288391955072
C           -2.86285674448937       -0.42600736146223        1.53101019667136
C           -1.75919086400591        2.15924238938117       -2.56848992264149
C           -1.31760937989744        0.92700412050129       -1.91898952977326
C            0.01428803816496        0.91194436303480       -1.32067746607789
N            0.54923839643191       -0.11702559340785       -0.64126710509723
C            1.92830368477910       -0.07119054992853       -0.21793483745176
C            2.90578946793106       -0.66957242007651       -1.25696334904966
C            4.32800046765909       -0.52700344132777       -0.78925823036688
C            5.02441819090381        0.64701987497342       -1.00238892574585
C            6.32829126112421        0.79277947426152       -0.55046326294121
C            6.95906930826598       -0.23731591156207        0.12291384332785
O            8.23388954318826       -0.20829658339802        0.59939673464908
C            9.00680071242665        0.94722481056733        0.38784077391056
C            6.25756747101827       -1.44410169612203        0.34610167325133
O            6.96042972763075       -2.40393001722884        1.01043100900492
C            6.35343391880015       -3.64818538347272        1.24431704239108
C            4.95726372670646       -1.56945099178954       -0.10724406869153
C           -0.10732131955872       -1.39702178168180       -0.65677763312940
C           -4.13132412004145        3.11027683378163        1.07237551444945
C           -4.43514351946165        3.61477276879539        2.47060920152615
C           -3.68486177216162        4.26093244714084        0.16104974079271
H           -4.85777018501275        1.18081527122334       -0.67873483234414
H           -6.96948856210765        0.34520329650510       -1.33842103209591
H           -7.10875757646313       -0.80247874153700       -2.69600127002947
H           -5.74680008602693        0.33411020886570       -2.66312286768213
H           -4.40396574594390       -4.24274878955189        1.74462876895951
H           -4.70664770451927       -5.21170132294600        0.28498128436620
H           -3.09051234663711       -4.50701752792821        0.54940532125255
H           -2.78137567404677       -2.51634060237210        1.81162579427638
H           -2.15818814995075       -0.25520002840205        2.32631980820970
H           -2.64859674303064        2.15038041142700       -3.15714809355819
H           -1.17047218572804        3.04095190934079       -2.47838482599140
H           -2.06578078274429        0.66697114265749       -1.14108531867536
H           -1.39622972515552        0.13478353963200       -2.66319517072871
H           -1.14293905847585        1.47355380919952        1.84703529129023
H            0.57599722747194        1.83349422817516       -1.29454138703075
H            2.01855193875370       -0.62298616197231        0.72384372059950
H            2.20253399416991        0.96888525896728       -0.03556003918372
H            2.77440469918788       -0.14652997370967       -2.20563635037357
H            2.67336034990549       -1.72428082154171       -1.41824893676002
H            4.55917863053752        1.46379825078906       -1.53261800192978
H            6.84320844375624        1.72187484223206       -0.73518979246102
H            8.56615361773257        1.82208920693905        0.87834611604596
H            9.13983628008168        1.15626466712673       -0.67797292371646
H            9.97369941888539        0.73221780106510        0.83838527888320
H            7.10799205574846       -4.24285792936478        1.75848510962114
H            5.46964196340299       -3.55499197534006        1.88485923584093
H            6.07679679936150       -4.14915633759314        0.31110542534759
H            4.41704134216344       -2.48973240747523        0.05601985690797
H           -0.22943462306236       -1.78545433217147       -1.67471200394237
H           -1.10013679165349       -1.30350925497065       -0.20814779092058
H            0.47720600110038       -2.10915911633183       -0.07927708734164
H           -5.04392750939910        2.67865745691873        0.65159107692727
H           -3.53504662630515        4.02245002122076        2.90750423059217
H           -4.77953169173421        2.78730051882533        3.09320855883403
H           -5.19873290854109        4.38563665685976        2.40940550255529
H           -2.79017768622355        4.71291276349708        0.59272306433472
H           -3.46838228128538        3.88302724052562       -0.84111278817207
H           -4.45674512630211        5.03767604872565        0.09857610744035
H           -0.55210009499430        3.59522794170150        2.46202047511550
