72
 energy: 35.081365055573 xtb: 6.6.1 (8d0f1dd)
N           -1.53434149118192        3.13363492341781        2.23027688239103
C           -1.65056920797241        2.28483595010281        1.29657716447418
C           -2.85327893049192        2.08399084280022        0.46895557718096
C           -3.35049565660720        0.68279875775436        0.51006271178718
C           -4.34177898458940        0.30793678282539       -0.41195123768976
C           -4.82165509486063       -0.97992975687262       -0.49049413610848
O           -5.76942873118788       -1.41367152989836       -1.36843438280722
C           -6.39310359226834       -0.48193630576980       -2.20824265893217
C           -4.31388458790950       -1.96627729804928        0.37958258709430
O           -4.85886384499050       -3.20974445150275        0.22817038143569
C           -4.48415091456311       -4.20532316187264        1.14072021166063
C           -3.35237174493285       -1.60360604224307        1.30448958331118
C           -2.88385425712887       -0.29484593381964        1.37970307656518
C           -2.15193233197763        2.22655714712801       -1.53341519742613
C           -1.33664613003514        0.99081008893337       -1.71239240421335
C           -0.00538446794708        1.02494861309762       -1.07372527125852
N            0.61695046956294       -0.11465134220406       -0.58332895553903
C            1.98971783261876       -0.07217008972224       -0.18491427485607
C            2.94028969849584       -0.59785722062533       -1.28167171561331
C            4.36282426860768       -0.47877296633641       -0.84042812166365
C            5.06621671701074        0.69411157457685       -1.03719958820444
C            6.37006632850818        0.82317245992521       -0.58040466854629
C            6.98786004934559       -0.22038041186592        0.08662335733361
O            8.26914826531883       -0.21235153251548        0.56184343113981
C            9.04897053728694        0.93531351544281        0.34701842211068
C            6.27040423963666       -1.41709167314368        0.30909715746035
O            6.96090891081994       -2.39263305350017        0.96371130653103
C            6.32936337234952       -3.62562993507654        1.19006576368009
C            4.97181697750678       -1.52685874101567       -0.15037605085622
C           -0.06091939967681       -1.37648519763755       -0.63284042201655
C           -3.98204413315459        3.07528746978894        0.72099518930621
C           -4.48018008107417        3.05885407960663        2.15880108941005
C           -3.50683446330395        4.47396059895849        0.37241921696581
H           -4.72531521506606        1.05109472055017       -1.09031479775109
H           -6.88816973955684        0.30654778441437       -1.63257628091844
H           -7.14104987083665       -1.04166322551447       -2.76863432633187
H           -5.68035212593758       -0.03760247510289       -2.91148397253712
H           -4.70930567441419       -3.91267347478039        2.17013060295172
H           -5.07711107184781       -5.07852670018834        0.87399402868292
H           -3.41740058471819       -4.44504618397529        1.05835343789695
H           -2.96338119100113       -2.33032697507828        1.99902595147738
H           -2.14488891276535       -0.06518997662455        2.13128478656227
H           -2.93057030984585        2.24894770696352       -2.29602017841985
H           -1.52951873708087        3.10430534776105       -1.63581523995239
H           -1.94607248724372        0.18120017627535       -1.31228117363618
H           -1.22098014705251        0.92591427661315       -2.81371467570563
H           -0.84492259186932        1.55185333966641        1.07150835136509
H            0.61823767755583        1.91891601695966       -1.14797511256034
H            2.10946035322724       -0.65649485872904        0.73079646392414
H            2.25516192420636        0.96227582143198        0.04641296200331
H            2.76557531185500       -0.01180541623376       -2.18460683078353
H            2.68544013464029       -1.63774484798071       -1.48864586016192
H            4.60229292423104        1.52189799162590       -1.55461738863374
H            6.89726582409686        1.74630312419108       -0.76285371633454
H            8.61785096730360        1.81470421812308        0.83839660399846
H            9.17797060348126        1.14624439226502       -0.72050573281153
H           10.01835951074933        0.71534769050569        0.79146189628477
H            7.06948450515374       -4.24282867474070        1.69835566616089
H            5.44783089053318       -3.52162621903736        1.83307693204051
H            6.03845562957085       -4.11115477241558        0.25291910972778
H            4.40964892466738       -2.43355519232446        0.01518317143152
H           -0.22158555664400       -1.70229562423119       -1.66656006618426
H           -1.03853752197842       -1.29234959855807       -0.15176157853039
H            0.52733325191702       -2.12278726243766       -0.10357847678967
H           -4.83756336570065        2.83064431345709        0.08208379163544
H           -3.66950592460063        3.31348452263975        2.82801040455863
H           -4.86715955063349        2.08052472069354        2.43105822424717
H           -5.28078629591927        3.79092084441140        2.24798427293432
H           -2.66532046731778        4.71772729725039        1.01657039071251
H           -3.18616184816229        4.50455658240782       -0.66374865913345
H           -4.31557342503497        5.17935852312680        0.53629218724793
H           -0.61471514568907        3.11395742848299        2.66543232583029
