72
 energy: 4.700941190976 xtb: 6.6.1 (8d0f1dd)
N           -1.52332779413066        2.97644965538109        2.23043944632582
C           -1.60846828758852        2.21640466227835        1.23074483889615
C           -2.79463182308756        2.08890999794881        0.30719825792997
C           -3.33654180151931        0.67222358962308        0.42217807449630
C           -4.32788917711300        0.28255034734740       -0.48452210581181
C           -4.83649763205437       -0.99821012761319       -0.50783322413391
O           -5.79205425956492       -1.44790219761574       -1.36771626347957
C           -6.39657193027710       -0.53757670445185       -2.24595553250471
C           -4.35212992173426       -1.95536911059128        0.40771672235435
O           -4.91700422413729       -3.19238751124806        0.30596471871034
C           -4.56052553279776       -4.16127345590388        1.25509273419285
C           -3.38609510043227       -1.57407400869832        1.31880467295786
C           -2.89026002676518       -0.27155416570716        1.33412653948371
C           -2.19956151824964        2.25030417992644       -1.32171997861628
C           -1.30903553241832        1.07596341287163       -1.69902794574848
C           -0.01182072567828        1.09598284460940       -0.98694281193296
N            0.62210203285434       -0.07635412321918       -0.56258686809766
C            1.99583912764257       -0.05387407315092       -0.17054842669134
C            2.93862663984493       -0.57282012987646       -1.27981775023103
C            4.36209265294600       -0.45959127607797       -0.84085570588874
C            5.07152221544726        0.70964713163928       -1.03988043563566
C            6.37802100459650        0.83136928942074       -0.58987662879397
C            6.99275034389070       -0.21567588835730        0.07364918479366
O            8.27421350564907       -0.21267629514139        0.54590090815577
C            9.05819638523073        0.93230936293293        0.33493694768656
C            6.27113543672141       -1.40980172326725        0.29635621197379
O            6.95889400063699       -2.38911301559205        0.94889758580181
C            6.32504002227474       -3.62128424088754        1.17343190305898
C            4.97041294451085       -1.51295292469658       -0.15715722476258
C           -0.05512895027864       -1.33999251005170       -0.62603133659464
C           -3.93431175051209        3.07290981911927        0.64797113564173
C           -4.48342368144346        2.93085806886475        2.06290035881544
C           -3.45987868614749        4.50107306622227        0.44854973486579
H           -4.70045558831149        1.00698501133828       -1.18805035888587
H           -6.87524740096697        0.28559508521641       -1.70637397139351
H           -7.15665701105954       -1.10540922700408       -2.78043498035442
H           -5.67675425213731       -0.13665687844334       -2.96733099018985
H           -4.78364717632963       -3.82862641647263        2.27311565159998
H           -5.16718450168755       -5.03331473083818        1.01767666132702
H           -3.49886389737716       -4.42345831112296        1.18500023360778
H           -3.01215151855265       -2.27989745064602        2.04337356311907
H           -2.14817114936269       -0.02423514748671        2.07822765469053
H           -2.97600664537937        2.30219477253551       -2.09122468035808
H           -1.58797682518308        3.15325471995891       -1.43102995911521
H           -1.88251415081041        0.18658048281125       -1.45080980386290
H           -1.13937068884173        1.13671032634299       -2.78973546200568
H           -0.76850204822624        1.58804263298872        0.87622137594287
H            0.63508602331309        1.96106005125337       -1.06078853901945
H            2.13060291389853       -0.65971765970510        0.73400404930044
H            2.27643651396577        0.97278718064808        0.07571115498386
H            2.76461405665398        0.02219702399158       -2.17690023359692
H            2.68305162597270       -1.61068331531087       -1.49779234074170
H            4.61061680507491        1.53898906765150       -1.55670971895017
H            6.90968139623112        1.75148631801958       -0.77359944682998
H            8.63198664724676        1.81260598693614        0.82891223335568
H            9.18804966540734        1.14441015282182       -0.73216788429911
H           10.02669050206587        0.70596642299016        0.77819834797291
H            7.06475861242116       -4.24117141435874        1.67871224826278
H            5.44483558705659       -3.51642030868261        1.81796985784296
H            6.03165675968621       -4.10385801813021        0.23525069557186
H            4.40727298952809       -2.41952349488966        0.00600917118936
H           -0.22074128774972       -1.66593417911271       -1.65973087979836
H           -1.02898287898210       -1.26959389412233       -0.13373285202744
H            0.54137284335705       -2.08982800895481       -0.10986278735105
H           -4.76411797681432        2.88606591868398       -0.04007129834906
H           -3.70356235653639        3.13575014077392        2.78527866875295
H           -4.87223038159415        1.93288196788339        2.23816213809266
H           -5.29600269273609        3.64470776267711        2.19450984455216
H           -2.63802394993068        4.70081589610663        1.12996010858760
H           -3.12002832519656        4.64438877581897       -0.57032408291161
H           -4.27896652668663        5.18278128541760        0.65602991092183
H           -0.61743984508334        2.95871145918165        2.69678568358289
