72
 energy: 57.865310022059 xtb: 6.6.1 (8d0f1dd)
N           -1.48134523708217        3.49791309434907        2.06559220221311
C           -1.82084656769611        2.31292994309464        1.69554885151695
C           -3.06873808424279        2.02623812120011        1.11469726548798
C           -3.43177213936273        0.67625200579741        0.82150530942186
C           -4.40104220806743        0.36445626333753       -0.16692867602952
C           -4.78128628550997       -0.92977555982785       -0.43228413474970
O           -5.69926794997752       -1.30160937462066       -1.37693006255014
C           -6.40599947932376       -0.31273823371391       -2.07261298165708
C           -4.19661787889642       -1.99783090700282        0.28458616410539
O           -4.65962414314431       -3.24518650397392       -0.02004318026562
C           -4.22276776365993       -4.32700325505559        0.75801003101715
C           -3.24373725747127       -1.70577830381514        1.24359577050341
C           -2.85705686176471       -0.40736378581259        1.50071095727622
C           -1.82622938431353        2.17205198522428       -2.41456336491311
C           -1.32944411478578        0.91505507845663       -1.86420744836686
C            0.01989406762884        0.87975190707739       -1.32343382700985
N            0.55916193680408       -0.13062550091422       -0.62006011485086
C            1.93997907523824       -0.07424523913843       -0.21900735800298
C            2.91500979277357       -0.66265606013552       -1.26496963813673
C            4.33744412001722       -0.52278518827744       -0.79885298192368
C            5.03298087672301        0.65221437278993       -1.00947268824000
C            6.33621116754016        0.79593315858089       -0.55566092947628
C            6.96365636813696       -0.23601857393230        0.11663872267102
O            8.23730913334187       -0.20774873382700        0.59522222432960
C            9.01368048820769        0.94549307682587        0.38215905121306
C            6.26175983859448       -1.44215838989513        0.34012559756694
O            6.96034968094051       -2.40107144511826        1.00637789758932
C            6.34976324085293       -3.64419254036865        1.23733739182510
C            4.96192100736345       -1.56500352180540       -0.11454880084721
C           -0.09717612594166       -1.40727349810424       -0.64031989329636
C           -4.10549024627772        3.10302485474396        1.00934579777182
C           -4.43892588133760        3.52280164485703        2.42405520438154
C           -3.66054146236419        4.31266265453106        0.17689987244305
H           -4.83555201531743        1.16464286328435       -0.74747531092929
H           -6.95876703042848        0.34050557147586       -1.38810374457774
H           -7.11036091667102       -0.84244497985437       -2.71313350047309
H           -5.73314057507832        0.27380721190727       -2.70551858730027
H           -4.45598472531084       -4.18958825207112        1.81854152093865
H           -4.76701440286007       -5.19309340237726        0.38476543304199
H           -3.14493995585502       -4.49737442118602        0.63443978467721
H           -2.80830937588215       -2.48524740303036        1.84053685689846
H           -2.15336492089063       -0.22446332345862        2.29378249730482
H           -2.69584352032115        2.16149657772417       -3.02836838436397
H           -1.22750726079169        3.04650816391379       -2.34282121618451
H           -2.05283857194836        0.54673908744939       -1.12556442597343
H           -1.37698722589231        0.23925964955849       -2.70033696558004
H           -1.11321287764385        1.46260926353594        1.71505852922449
H            0.55558221460452        1.81288732380538       -1.30398216548731
H            2.03357088550768       -0.61848283730457        0.72401933458683
H            2.21162701113794        0.96858697808119       -0.03824732525137
H            2.77610246372040       -0.12566593187988       -2.20473809113494
H            2.68046340236479       -1.71507796826599       -1.43415421212848
H            4.56745721431195        1.47076018150217       -1.53801105036207
H            6.85291005632064        1.72494196406934       -0.73738400191991
H            8.57496528400378        1.82173841058001        0.87272493613392
H            9.14611970370589        1.15367003760695       -0.68435258679033
H            9.98119621108932        0.73002947362273        0.83168602593859
H            7.10077349424966       -4.24347439388787        1.75324466141147
H            5.46519065807440       -3.54847492203977        1.87673625284743
H            6.07230974632074       -4.14127627473857        0.30233960889933
H            4.41738064342905       -2.48221914628376        0.04887092286358
H           -0.21717512380507       -1.78344986316759       -1.66257523783739
H           -1.09259038193356       -1.31480545616322       -0.19537129776800
H            0.49050164292957       -2.11887927270649       -0.06780494924965
H           -5.01178625267017        2.68740489269629        0.55310511334373
H           -3.55266483848724        3.91009169961745        2.89550707408131
H           -4.79573367065321        2.66371764640636        2.99442612293058
H           -5.20361698500587        4.29148140964015        2.37974984085021
H           -2.77047680838907        4.73523514881007        0.65222458818731
H           -3.42911197939457        3.99532017175297       -0.84102101912845
H           -4.43415155589171        5.08594405898978        0.16080267009017
H           -0.56776666378430        3.55159795541673        2.50939108638924
