72
 energy: 54.521043002986 xtb: 6.6.1 (8d0f1dd)
N           -1.50149041544670        3.50486350013317        2.13971336345289
C           -1.85699677789803        2.31132684243310        1.79489237484967
C           -3.13820690648419        2.00388432176389        1.29980420185209
C           -3.46437952435316        0.65676320091081        0.93292523312095
C           -4.41805752442519        0.37128607318065       -0.07468475969233
C           -4.75892439722780       -0.91877252497380       -0.41658195302959
O           -5.66132372920177       -1.26451012637958       -1.38278813242821
C           -6.40589768943352       -0.25214315870454       -2.00942385159249
C           -4.15227018559902       -2.01041876719948        0.24754121987251
O           -4.56711588258937       -3.25298149844006       -0.14912752624912
C           -4.09769639952162       -4.37329476926740        0.55138229406930
C           -3.20741532245738       -1.74899288062984        1.22754118209449
C           -2.86739123642705       -0.44992912564518        1.56048604312364
C           -1.72393398061490        2.12600934366574       -2.61768116205363
C           -1.31983440804468        0.90810371534688       -1.91219757276335
C           -0.00376545336852        0.92380733668769       -1.28013836621665
N            0.56392527642153       -0.12729818471316       -0.67759362834017
C            1.92937542716216       -0.06897552388549       -0.22303812049458
C            2.90527253721659       -0.67348801830689       -1.25305098029207
C            4.32500116140345       -0.52842003531789       -0.78324529306389
C            5.01764731023510        0.64815764689995       -0.99592571256836
C            6.32350487702367        0.79548710583480       -0.54902558911242
C            6.95616267386856       -0.23579303097444        0.12158318969643
O            8.22964935564695       -0.20821517967976        0.59623013412690
C            9.00440491825320        0.94589827845168        0.38823009286301
C            6.25474012502770       -1.44331926742085        0.34844999702363
O            6.95811380183851       -2.40180747953896        1.00905852955323
C            6.35538426388851       -3.64843878320262        1.24469158887735
C            4.95318946865620       -1.56972103776308       -0.10141973988844
C           -0.10448822563528       -1.39883273682526       -0.66072737968265
C           -4.16217365584079        3.10254783455783        1.16010814184277
C           -4.46582823364393        3.71280916916611        2.53560912266489
C           -3.68937769405674        4.19069808879368        0.19040210265597
H           -4.87202538436219        1.19420702853747       -0.60214633411540
H           -6.97783460848711        0.33852205553897       -1.28589798327515
H           -7.09562691284452       -0.77023476915730       -2.67484830944923
H           -5.77052745551573        0.41669070897186       -2.60069214333734
H           -4.33130267831274       -4.31472816861995        1.62012831831048
H           -4.61821702001985       -5.22610650354310        0.11728333927301
H           -3.01691994516323       -4.51063146639330        0.42538598697136
H           -2.74406627484796       -2.56315822775338        1.76525438355371
H           -2.16603889034725       -0.29358862587009        2.36518846116821
H           -2.65316505389118        2.15745362408950       -3.14498199858235
H           -1.15027352378740        3.02713493327667       -2.52746184940660
H           -2.06780435901488        0.69285494986685       -1.12133775199136
H           -1.40626847886535        0.03472746491699       -2.57544820020833
H           -1.14647766956511        1.46727013921726        1.82394071345067
H            0.55354169783424        1.84707773372305       -1.26189375910069
H            2.01467946813988       -0.61257963321506        0.72206073823513
H            2.20327560583885        0.97250571626351       -0.04379361621224
H            2.77334940004740       -0.15029914715698       -2.20228807598505
H            2.66576220821627       -1.72718482760460       -1.40478124959484
H            4.54800137056859        1.46337147878326       -1.52570118028219
H            6.83919642586876        1.72341936078391       -0.73763698721649
H            8.56696204511096        1.82203780056465        0.87829130879401
H            9.14013980241745        1.15554716101220       -0.67801774104962
H            9.97229522105531        0.72919797259204        0.83767924936754
H            7.11062478098160       -4.24283202144883        1.75672593293169
H            5.47266336897647       -3.55818929135384        1.88691908309241
H            6.07699697664140       -4.14731258629237        0.31017509153986
H            4.41141866240973       -2.48901954243221        0.06125554871671
H           -0.23243376833513       -1.79626723068526       -1.67341437461513
H           -1.09534032703232       -1.29710706278967       -0.20715106698810
H            0.48015191893434       -2.10574171193323       -0.07733435653874
H           -5.09733797124802        2.67397403077657        0.78387462321428
H           -3.56648996203722        4.17000630377380        2.93612927487888
H           -4.80962920368682        2.94369562811402        3.22623008968074
H           -5.24229267498162        4.46997290406157        2.44486441372965
H           -2.78652278900008        4.64777208865998        0.58416459864875
H           -3.46934623277148        3.76606046437369       -0.78880686180384
H           -4.45456748617431        4.95633316243211        0.07754278071741
H           -0.53645464424918        3.58814861391518        2.45102718734713
