72
 energy: -5.717206855199 xtb: 6.6.1 (8d0f1dd)
N           -1.49992603916672        2.82187466054243        2.23748616291690
C           -1.56453709512685        2.16481476737040        1.16785584511389
C           -2.75724721634351        2.07098986250169        0.25502721887540
C           -3.32126658966603        0.65589553273269        0.34872763229542
C           -4.30900856488848        0.25573516842967       -0.55443089740820
C           -4.84548467643793       -1.01591518129274       -0.52529329943498
O           -5.81303315641008       -1.47893943052406       -1.36471777375938
C           -6.39726672715285       -0.59138496302473       -2.28198431822546
C           -4.38650349622893       -1.94526974319669        0.43392624912472
O           -4.97324266842156       -3.17363920007625        0.38436803463678
C           -4.63747311660202       -4.11552860827977        1.36971719730928
C           -3.41282758676066       -1.55045222549116        1.33052555548597
C           -2.88832548906755       -0.26199437591324        1.28990026711250
C           -2.20224204527894        2.28182517122312       -1.21322765221845
C           -1.27204626604769        1.15628324327213       -1.67656476343258
C            0.00118332183026        1.12604705206244       -0.91382144271565
N            0.63096851486928       -0.05095608689793       -0.56117689786508
C            2.00078433349801       -0.03774275486106       -0.16073716894727
C            2.93540453275044       -0.54817886695229       -1.27930622042960
C            4.35952598067471       -0.43927388750516       -0.83863152206843
C            5.07430999345653        0.72622989975829       -1.04151787800877
C            6.38394105685352        0.84022076410410       -0.59941766719846
C            6.99522319800799       -0.21004228534449        0.06150950325872
O            8.27438755200948       -0.21155071598245        0.53242172984968
C            9.06594570615396        0.92897166981148        0.32389749784989
C            6.26963064005980       -1.40238837394849        0.28400596131912
O            6.95373229686517       -2.38401124483765        0.93557135259403
C            6.31838748561641       -3.61588622159706        1.15845207760882
C            4.96602836477450       -1.49787288656104       -0.16180357501963
C           -0.05202544423930       -1.31010431180743       -0.62237895219237
C           -3.88613082585932        3.07615565109617        0.59784671582099
C           -4.49265961660438        2.81488659347134        1.97380994550280
C           -3.40952049518047        4.52156928470692        0.52415176163754
H           -4.66833883231869        0.96060029705200       -1.28551728584929
H           -6.85637833683530        0.26599466440257       -1.77913563172580
H           -7.17144954416329       -1.16542133633777       -2.78870649186783
H           -5.67172508479554       -0.23627953484325       -3.02181370097005
H           -4.85710077231762       -3.74387719945177        2.37587983753040
H           -5.26037829192562       -4.98406249452627        1.16244922356993
H           -3.58235928108018       -4.40468107363663        1.31210550346534
H           -3.05567341004834       -2.23368348714856        2.08498676188244
H           -2.14525827494005        0.01045065963056        2.02425223503689
H           -3.01301298832914        2.35972077788713       -1.93972250535780
H           -1.63915474847851        3.21867466585673       -1.25697357895182
H           -1.82335713847883        0.22287238140668       -1.58098197107877
H           -1.04015835826875        1.32376401295272       -2.73801415589215
H           -0.70535286867326        1.63394264348327        0.69675631525846
H            0.64699323711947        1.98562112659190       -0.97220552318500
H            2.12260002891602       -0.66693735705612        0.72905787140005
H            2.29669714075866        0.98104550032019        0.10253121297906
H            2.76510138297853        0.05659359517695       -2.17141235826631
H            2.68038927656446       -1.58360708149598       -1.50930617040411
H            4.61815160913143        1.55652724491754       -1.56028384742473
H            6.92001898322646        1.75705212138317       -0.78520713132454
H            8.64647714580546        1.81105175742028        0.82001088608731
H            9.19777770467191        1.14088173760395       -0.74277218921742
H           10.03282657663293        0.69422264685692        0.76618814024692
H            7.05836400139959       -4.23698634662572        1.66117512480123
H            5.43978911908970       -3.50989552060626        1.80449730257886
H            6.02348009890979       -4.09616708272841        0.21923629324974
H            4.40236753808380       -2.40466600503465       -0.00314975141851
H           -0.22188370578613       -1.63290419847208       -1.65578580870070
H           -1.02001332169133       -1.24794226096861       -0.11652659812161
H            0.55543727775400       -2.05940354303401       -0.11980138949148
H           -4.67744958049619        2.94016930780602       -0.14724336060237
H           -3.74324901581750        2.96235976631721        2.74377613352904
H           -4.87451500815347        1.80058208860146        2.04389373581944
H           -5.31654417053355        3.50503332306425        2.14408320347283
H           -2.60775218189446        4.68751307318754        1.23740790346431
H           -3.05853745182395        4.77296986699538       -0.47209704744506
H           -4.23713436163042        5.18174001724987        0.77013014873621
H           -0.60315562146163        2.81412550045004        2.72189420205244
