25
 energy: -42.118327155377 gnorm: 0.005085713488 xtb: 6.6.1 (8d0f1dd)
C            3.08116648227616        0.97104593493103        0.11507193375471
N            2.08383824965143       -0.05072002103338        0.32227198190442
C            2.36314692101876       -1.23307418789660        0.85432836252227
N            1.24727373790817       -1.96655564561527        0.89930830042168
C            0.21177467929895       -1.22231104818856        0.38350047017470
C            0.74041845629805        0.01052438826901        0.02015634845596
C            0.10886429316568        1.28259432995565       -0.50299558119746
O            0.81893741375129        2.18621470504820       -0.95201415359702
N           -1.20009144895169        1.28881343511277       -0.38024600054581
C           -1.96531494357195        2.43457934829356       -0.71401235604324
C           -1.45324420142603       -2.63517427938847        1.22671887916381
O           -1.28989403155265       -3.31304608578400        2.16712316465445
N           -1.07813024358495       -1.79635875229569        0.32341577932841
C           -1.95826695325405       -1.45791729660450       -0.79469801221225
H            3.61471233798689        1.16248010564265        1.04469156487192
H            3.79160248174667        0.64473286945753       -0.64466577362945
H            2.59267777737175        1.88189198632873       -0.23507060915178
H            3.33019738872331       -1.54972373475178        1.19393680458349
H           -1.34732756961232        3.24080614820742       -1.12149819979429
H           -2.73293719365470        2.15783332996258       -1.44124982076693
H           -2.47484049771008        2.79087346860343        0.18611052457873
H           -1.56212696487507       -1.88639137033677       -1.71588017252861
H           -1.98737017660471       -0.36359693571981       -0.87012890967313
H           -2.95212785173342       -1.85440307724932       -0.60293875054224
H            1.17749337143150       -2.90487907334650        1.26993584317114
