72
 energy: -99.420557491275 gnorm: 0.004776072083 xtb: 6.6.1 (8d0f1dd)
N           -1.58880569171788        0.82141048204001        2.07249061167952
C           -1.46439845157610        0.93932147249267        0.83060366087102
C           -2.62982977495913        0.93112880537404       -0.13165407464293
C           -3.27432288858549       -0.51493319167597       -0.18607692474059
C           -4.48872292088171       -0.53658954403879       -1.04806644309539
C           -5.64082596000375       -1.17152679467188       -0.70595397930561
O           -6.76389375143374       -1.22893081259991       -1.45093695861727
C           -6.80854968929137       -0.53685853565360       -2.67754031999879
C           -5.74235770309886       -1.86899727344411        0.55138873708480
O           -6.89659545229786       -2.49105497913064        0.76848385757860
C           -7.11015308153207       -3.18826882968817        1.97764732626311
C           -4.65316367505586       -1.81841749832808        1.43960070597827
C           -3.50840861686111       -1.15611308740628        1.12940805099153
C           -1.96407169398127        1.21023435304478       -1.49737540935167
C           -0.52728852341115        0.71112215268062       -1.37158595413050
C           -0.14748926679778        1.09363519483706        0.06846716691188
N            0.91045253750312        0.37056509153284        0.72011168932244
C            2.24995207803829        0.88567259889366        0.61402399922383
C            2.88045514117869        0.79181006790178       -0.79892305035830
C            4.37596736015443        0.80160119512667       -0.71053938435211
C            5.11330578363618        1.95092919158312       -0.95459138475987
C            6.49580919904555        1.94269353276406       -0.85523686783731
C            7.17382751359346        0.78407973008321       -0.49928879985937
O            8.50660197436044        0.65714811993090       -0.37823411233777
C            9.33489006833388        1.76457688670428       -0.64837818036491
C            6.42531017796437       -0.39818723391759       -0.23276888451421
O            7.15682035112815       -1.47556713711758        0.11082291457755
C            6.50371641398882       -2.68949386117524        0.39595313764892
C            5.04499299672398       -0.36534656341700       -0.34457205594574
C            0.79995934821948       -1.06711447971548        0.74340194500266
C           -3.67867380303801        2.01623552720744        0.23073568345810
C           -4.53429548832148        1.64024078558593        1.43619624497899
C           -3.02086536087346        3.36910055044745        0.51468088420135
H           -4.42082938997468       -0.03533780276681       -1.99892890880829
H           -6.63886388302163        0.53491069483150       -2.53670918812629
H           -7.81258816365197       -0.69558853247209       -3.06545317037321
H           -6.07868993707054       -0.93461455681835       -3.38914820557412
H           -7.06506339885595       -2.51460424086403        2.83774302470306
H           -8.11097121680689       -3.60877416138324        1.89935845317880
H           -6.38505487198614       -3.99682287206947        2.10504613003221
H           -4.73600243221833       -2.29873852378854        2.40177174212138
H           -2.71413601863163       -1.10609619411718        1.85583853738640
H           -2.48219376392111        0.72697215572388       -2.32266362234681
H           -1.95861072487722        2.28060391928272       -1.69795443970274
H           -0.48380590999177       -0.37243776645504       -1.49251313224994
H            0.13028402028288        1.16227232068640       -2.11223816445054
H           -2.49452251341080       -1.10899695319833       -0.68831843797531
H            0.11426927497738        2.15858002986778        0.09956429994865
H            2.87096639005143        0.31999914471812        1.31335034477821
H            2.24891110672199        1.92999365792132        0.93677069402747
H            2.53330329958043        1.62286349890773       -1.41283478958495
H            2.55485127880655       -0.14069762684286       -1.26372846158875
H            4.61142609327464        2.86421182047559       -1.23488296586470
H            7.04176622449141        2.84917743811310       -1.05952746479847
H            9.13439822139019        2.59186540398115        0.03894524908800
H            9.21745215594675        2.10921479679776       -1.68007793250691
H           10.35315909292630        1.41023132168380       -0.49945010648316
H            7.29311174084685       -3.39398239750878        0.65044519148914
H            5.82193527420866       -2.58770307853332        1.24629559894631
H            5.95261206769374       -3.06226652399043       -0.47311115477283
H            4.46849965262456       -1.25805063194873       -0.15763016158774
H            1.13515668406290       -1.54667035340559       -0.18570899497718
H           -0.23549138124695       -1.34990918662680        0.92477788889766
H            1.41081442951471       -1.45213130066128        1.56035179333068
H           -4.33050832851970        2.12623118283401       -0.64354116737188
H           -3.89546156240110        1.34106044583804        2.26227668638171
H           -5.22178699447604        0.83453032114261        1.20124690180876
H           -5.12069596635785        2.50149026140797        1.74677794187798
H           -2.46271645885961        3.32804858424276        1.44632974700265
H           -2.34990328538688        3.68546641110063       -0.27966063999985
H           -3.79141570830471        4.12911453935718        0.61568482372047
H           -0.72643865057008        0.84661836081619        2.61047707145179
