25
 energy: -42.245230512605 gnorm: 0.006865357555 xtb: 6.6.1 (8d0f1dd)
C            3.21610909686658        1.13673118691393        0.01826093917441
N            2.26943372393694        0.05213111266650        0.00025960567664
C            2.54119358595379       -1.23960430563273       -0.00831577706295
N            1.39326958501147       -1.95111049228262       -0.00847355163261
C            0.35194907692385       -1.06803315776043        0.00048216750543
C            0.90659226522037        0.20022887593745        0.00649265185926
C            0.07539565484552        1.39778092020749       -0.00296769675777
O            0.48652262356394        2.53094866184114       -0.01761389196449
N           -1.27348944610615        1.06713721049879        0.00143745571174
C           -2.22897069036495        2.17112072210016       -0.00324088728332
C           -1.84996170260829       -0.19180590523720        0.00501567546378
O           -3.03383675493464       -0.36153113102433        0.00872305182869
N           -0.96678684370649       -1.30093388676141        0.00162193521959
C           -1.51994518107871       -2.64175212704491       -0.00251790233214
H            3.71354314651440        1.18664133935788        0.98765833084012
H            3.96865347317410        0.99575990539857       -0.75610030316193
H            2.68053850340724        2.07096357333787       -0.14999367929857
H            3.52443065753665       -1.66925515603773       -0.01518446962719
H           -1.66769365763568        3.10205778916534        0.00064918448913
H           -2.85373537497508        2.10455993661251       -0.88850377680061
H           -2.87305693048231        2.09710869774785        0.88001093721852
H           -1.20561805733591       -3.18826192663138        0.88683017767251
H           -1.21809079119633       -3.17797606838338       -0.90246517045486
H           -2.60502862399026       -2.54497605709020        0.00547877036328
H            1.32901417556014       -2.95969117629909       -0.01637215874655
