72
 energy: -99.660926582932 xtb: 6.6.1 (8d0f1dd)
N           -1.20406411371948        2.79523013961550        2.42131394024024
C           -1.85138194625783        2.34907962394735        1.53469049650321
C           -2.85635337672566        2.13809563422039        0.45441334663033
C           -3.47867160769111        0.73917224907803        0.46531658449513
C           -4.39138259144728        0.30810568031867       -0.50994985594562
C           -4.91734626903004       -0.97349275859299       -0.48515770728965
O           -5.78894675188819       -1.49621864154065       -1.39356235921839
C           -6.32528471140986       -0.67503532667754       -2.39829170556535
C           -4.52470716952913       -1.87813920800596        0.52946612394800
O           -5.06215109500406       -3.12842184488171        0.45423688954975
C           -4.73144998400983       -4.05910280202404        1.45420119923941
C           -3.65135651102757       -1.43754327255718        1.50378816720384
C           -3.14373085991167       -0.14610455011178        1.46769960972700
C           -2.15029391636017        2.34533071319594       -0.92517168262973
C           -1.27261974086418        1.17539219355357       -1.35428392958268
C           -0.14150988011970        0.96862410635849       -0.34298139820967
N            0.72772916720265       -0.10066690841224       -0.76580227079154
C            2.10634751225550       -0.06829010938345       -0.29914723783595
C            3.05877275664975       -0.55617336645296       -1.39714996010871
C            4.48400666653534       -0.45066390403805       -0.93754548135378
C            5.20843419509644        0.71122290913400       -1.12760391574328
C            6.51689572327407        0.82202764907309       -0.67245478062403
C            7.12203225495086       -0.23245546427722       -0.01288995497983
O            8.39136392767986       -0.23750864276263        0.48501181003619
C            9.17873927197830        0.91424200695684        0.33059083760819
C            6.39344444896122       -1.42603484779219        0.18792503258472
O            7.07570855932825       -2.41236589061595        0.83912522795833
C            6.43676851735399       -3.64114047400578        1.06631843036251
C            5.09165924043122       -1.51577017773431       -0.27205226184193
C            0.12619095212039       -1.42445692077534       -0.77266293911768
C           -4.04607641456154        3.15932444323904        0.52334658257901
C           -4.87479352486676        2.94143749951596        1.78564272423667
C           -3.59756881624489        4.61373012428448        0.43312722630976
H           -4.69085008569389        0.97022746326092       -1.30746588016498
H           -6.84693500404875        0.19242530669074       -1.98088494909910
H           -7.03841291653523       -1.29690806754373       -2.94079134629890
H           -5.55122988741467       -0.33585051265938       -3.09442071139071
H           -5.04686067973405       -3.71784051775340        2.44689173117848
H           -5.27476145085537       -4.96635225215216        1.19748422408735
H           -3.65820555222207       -4.27564323930893        1.47074458804929
H           -3.34439892581901       -2.08864646110556        2.30547828252970
H           -2.48126792042736        0.17902173937322        2.25417754757131
H           -2.90311586416757        2.51646745950260       -1.69391249059352
H           -1.54046615485787        3.24728251555675       -0.87839644714822
H           -1.86589103736112        0.26289832330830       -1.41935598533392
H           -0.87460833882090        1.37860545824149       -2.34523212274505
H           -0.70949694228000        0.86363834134368        0.68578274644990
H            0.47643773821789        1.88156157948188       -0.31571904120809
H            2.29852590095277       -0.67394502101804        0.59182360668374
H            2.36246380118995        0.96267130244917       -0.04940311411427
H            2.89355743911916        0.05792870982104       -2.28134487478816
H            2.82122556759209       -1.59063039736505       -1.64954915897019
H            4.76236728910949        1.54495917733603       -1.64891921775904
H            7.05791109787364        1.74027034242950       -0.84372878316870
H            8.72619239695771        1.78459969670309        0.81715707850769
H            9.36431002868311        1.14394539225752       -0.72444423630917
H           10.12461274637904        0.68509825907717        0.81697452000067
H            7.17233763151302       -4.26032688479292        1.57899304149356
H            5.55299868455112       -3.52713152544990        1.70327085221382
H            6.14792054154576       -4.12908640524696        0.12883587023850
H            4.52908394459504       -2.42542956857879       -0.12975134323462
H           -0.51060726920983       -1.52341527315258       -1.65485786244337
H           -0.50367384480418       -1.64001318786189        0.08983309843915
H            0.90161283145449       -2.19625042481024       -0.77723436703487
H           -4.67927572507831        2.95021417742698       -0.35455776576327
H           -4.28279958011424        3.13045256681060        2.66748042719683
H           -5.26186769914876        1.92589830672444        1.82804438500987
H           -5.72289843986341        3.63263420913679        1.80295985207110
H           -2.88772958139124        4.84230945098737        1.21309423019453
H           -3.15071993477379        4.83798153382969       -0.53186239881299
H           -4.45803927127090        5.27368403575624        0.55978550901858
H            0.19336437799960        2.48902860916718        2.92979311991316
