25
 energy: -42.485115936663 xtb: 6.6.1 (8d0f1dd)
C            3.20457294859371        0.93495215507683        0.20859648654767
N            2.29188855492369       -0.01302176247077        0.17345263293724
C            2.52773077141678       -1.34093813470503        0.18508863725377
N            1.32998044526743       -2.03558518097298        0.11047463764139
C            0.34100995323749       -1.12780619132574        0.06810362986980
C            0.90179033626506        0.14144754069091        0.13409352602405
C            0.10809321877246        1.33106662148711        0.06016570529826
O            0.49129692292145        2.48000105256617        0.08103862051410
N           -1.26600159543579        1.01667055928972       -0.05981650324006
C           -2.20054088135132        2.13019307377139       -0.13446121601600
C           -1.84817910082126       -0.22478536359496       -0.08605767074363
O           -3.04545886212725       -0.37668310889153       -0.16525441880414
N           -0.99882834572284       -1.33222229124287       -0.02600253800399
C           -1.56647728375511       -2.66203371385256       -0.05322867532595
H            4.23848308874690        0.65240008651594        0.13122585438632
H            4.15051829282676        2.99555053723813       -1.06501322769198
H            2.94782457264053        1.92083539508016        0.50996043376186
H            3.49074286655037       -1.77891569435733        0.29032588593795
H           -1.62110705872671        3.04938390034973       -0.13189899882718
H           -2.79152728495499        2.05225685906776       -1.04597320074420
H           -2.87446632065894        2.10746941007078        0.72170668152763
H           -1.30881601233681       -3.21400941706948        0.85380251435464
H           -1.22356990072894       -3.21062097363547       -0.93336001439242
H           -2.64835981477552       -2.54519716952462       -0.10380679413515
H            1.25120639397075       -3.03757191210155        0.08910821571386
