25
 energy: -42.134988388288 gnorm: 0.002213795355 xtb: 6.6.1 (8d0f1dd)
C            3.68553785181047        2.75477897873376        0.03841801710909
N            2.25102031682300       -0.53433153902308       -0.01700475450708
C            2.34918094441937       -1.82942466339391       -0.01138578166963
N            1.12464852915207       -2.44286315075368       -0.00605223844100
C            0.20202630912053       -1.44858609255828       -0.00756181347103
C            0.92684158266395       -0.24853464940245       -0.01497097077079
C            0.24414876077018        1.02517192265614       -0.02154738172226
O            0.76704774475339        2.11684506580403       -0.03952937276375
N           -1.14415360900120        0.87506795580798       -0.00463840804830
C           -1.95211992855174        2.08391933865018        0.00199551796966
C           -1.86728393077764       -0.30521190932095        0.00289119534423
O           -3.06960902674674       -0.31482038563708        0.01358262646086
N           -1.14027378426538       -1.50796493733991       -0.00238108928668
C           -1.86186048741177       -2.76224560010228       -0.00316488023578
H            3.98147617508374        2.48952968594634        1.03455596013630
H            4.32531494143990        2.51072691133365       -0.78863526052389
H            2.73844567512971        3.23102240937130       -0.12974820581992
H            3.27565397664224       -2.36888943673018       -0.01233052492915
H           -1.28142446903968        2.93948687957349        0.01219255505006
H           -2.58807869673092        2.11243454763930       -0.88329906250639
H           -2.59598413789934        2.09503942867666        0.88187378533627
H           -1.61423901319742       -3.34482963259541        0.88515241277991
H           -1.62490048499506       -3.33655778829345       -0.89987437051472
H           -2.92707165768683       -2.53355417911781        0.00437208698720
H            0.95608793259544       -3.43797061832423       -0.00173842406295
