25
 energy: 43.533251498989 xtb: 6.6.1 (8d0f1dd)
C            3.38806704936289        1.46677025624247        0.08442889684380
N            2.53700306713065        0.30082752754137        0.08228453782106
C            2.92569219113506       -0.97467771766625        0.06277374073715
N            1.84730754567366       -1.80201925662571        0.01346532096121
C            0.70978552923231       -1.02214972011139        0.00194846417558
C            1.17261877139406        0.30525600996532        0.04224257561860
C            0.24918385096410        1.41931460179479        0.01606269568739
O            0.59278379152998        2.59704643866788        0.02020045225601
N           -1.03844172135987        0.96469929394514       -0.02843016293490
C           -2.09369510941053        1.96652137078754       -0.05203988621005
C           -1.47456922395011       -0.39858632542588       -0.04239389222134
O           -2.67939286021717       -0.51133874910776       -0.06305086122884
N           -0.55123187476272       -1.39292912912738       -0.03507847493530
C           -2.79185828327294       -3.19812529626848       -0.09848231826201
H            3.89749266852276        1.55813893946298        1.04362849747117
H            4.13752260871513        1.38647067915660       -0.70335195483914
H            2.79334324024687        2.36957677941371       -0.08010208445134
H            3.93877189320316       -1.31069842783632        0.05576384417863
H           -1.58306407376603        2.92549927575542       -0.03471966893230
H           -2.70374769672376        1.86809258972164       -0.95116447632699
H           -2.74509707286831        1.85573171138855        0.81596752604710
H           -2.51367828948634       -3.64411793246133        0.81097256669495
H           -2.49052808346455       -3.60244253266087       -1.02064093848711
H           -3.39705858605392       -2.33080940281337       -0.08687457878804
H            1.91324392851991       -2.81590278144307        0.00820504720066
