25
 energy: 42.050492658279 xtb: 6.6.1 (8d0f1dd)
C            3.42485299330933        1.49725818820159        0.08094863573305
N            2.56767542150292        0.33546284988112        0.07427361620243
C            2.96156403742021       -0.93212301748784        0.05457594562893
N            1.89245811701654       -1.76392065484887        0.00963078583836
C            0.75318024784431       -0.98479486075545        0.00308414723974
C            1.20388629815933        0.34262481139647        0.04284029348888
C            0.26270014981153        1.45123689897606        0.01606493561479
O            0.59533518085926        2.63138213017312        0.01863446790295
N           -1.01763719211693        0.97774436057572       -0.02717838680640
C           -2.09503408425203        1.95656046703242       -0.05253359672124
C           -1.43258586014812       -0.40569709459315       -0.04128757611920
O           -2.63275494271535       -0.54434757675139       -0.06291508237293
N           -0.49260752784934       -1.37799286560586       -0.03322182589139
C           -2.93683021045812       -3.29592662473429       -0.10328316758829
H            3.91615288764767        1.60604328463764        1.04968078813426
H            4.19333944618006        1.38827207080355       -0.68729583221862
H            2.84147650773535        2.40304254833249       -0.10943084523737
H            3.97893451946812       -1.25674313916911        0.04942817036944
H           -1.60465122483387        2.92345717194973       -0.02397896682071
H           -2.69650810702392        1.85740911214523       -0.95730849028976
H           -2.75413753198254        1.83290771800472        0.80778780061182
H           -2.67080266034677       -3.74941122142677        0.80768262655659
H           -2.64629589555246       -3.70567918896785       -1.02851421883202
H           -3.49529463267409       -2.39857036327432       -0.09011659919651
H            1.96697904684618       -2.77494023819413        0.00031977470619
