25
 energy: 44.533996850497 xtb: 6.6.1 (8d0f1dd)
C            3.37033450544464        1.45558669582289        0.08735042168824
N            2.52181849314268        0.29059812521392        0.08882806455753
C            2.90558019798046       -0.99128514730061        0.06636542756757
N            1.82369024344044       -1.81730087165070        0.01597097820922
C            0.68749165577729       -1.03679248519565        0.00192187613979
C            1.15596913729215        0.29057342190548        0.04327810011333
C            0.24221444014040        1.40563672353994        0.01691213625748
O            0.58997726588281        2.58246195787950        0.02128783036933
N           -1.05120289974816        0.96222464800542       -0.02956423999657
C           -2.09496126256268        1.97838893341760       -0.05198524325048
C           -1.49671636696237       -0.39362891567170       -0.04260334871904
O           -2.70338893172699       -0.49372844009738       -0.06277497981584
N           -0.58079188310687       -1.39751647947363       -0.03573371845699
C           -2.71597779440482       -3.15090468260407       -0.09680195351809
H            3.89127145174276        1.53616189846591        1.04056834235179
H            4.10742578458652        1.39186432210703       -0.71171477299261
H            2.77308520402386        2.35813492046578       -0.06311376484734
H            3.91632190101098       -1.33542205116433        0.05990430039492
H           -1.57253725250770        2.93194282914175       -0.03494781651049
H           -2.70697678242052        1.88739510416675       -0.95057941617949
H           -2.74605031899328        1.86817679483505        0.81626760348884
H           -2.43601928613858       -3.59360737256484        0.81346315032204
H           -2.41197288735221       -3.55506860801872       -1.01772143150821
H           -3.34405361368440       -2.30099943225580       -0.08679908183258
H            1.88227944878498       -2.83183391551742        0.01179818198945
