25
 energy: 47.924211784480 xtb: 6.6.1 (8d0f1dd)
C            3.29276897630434        1.39660647524778        0.09241663663014
N            2.45793302015162        0.22154543343929        0.05809713608492
C            2.82874687682228       -1.07542450779577        0.05832523037686
N            1.72265942258392       -1.88475275627299        0.02214564639487
C            0.59293059037860       -1.10135218172275       -0.00177435426179
C            1.08411692545968        0.22228894342378        0.02882881367989
C            0.21544999268411        1.35035890298618        0.00523030950048
O            0.56633635808953        2.52711573972741        0.01697132235712
N           -1.10354317140627        0.95399719995062       -0.03536115327494
C           -2.10506770988354        2.01906144295017       -0.05197652880685
C           -1.58732115958300       -0.36324503307780       -0.04589289043102
O           -2.80105008286831       -0.42712334435652       -0.06473678446065
N           -0.70825964320243       -1.42752872723282       -0.03819851483399
C           -2.37755408864318       -2.96680427589751       -0.08651679952812
H            3.83812374860925        1.44819544625691        1.03456761287390
H            4.00636801603699        1.40857256492605       -0.72754310887557
H            2.68265226475677        2.29685329934136       -0.00492425875866
H            3.83756948013950       -1.42621473492344        0.05962052070841
H           -1.53737504200823        2.94722908687176       -0.03264791018633
H           -2.71518485556104        1.95264325001032       -0.95201364348638
H           -2.75347669545265        1.93915978838697        0.81919840416793
H           -2.12896207587929       -3.41939276545879        0.82987547419878
H           -2.09090745462138       -3.39278800885871       -1.00427341783927
H           -3.10877198416774       -2.20642473706327       -0.08708302663705
H            1.77169248467893       -2.89449633380663        0.02052826469876
