25
 energy: 22.950934805858 xtb: 6.6.1 (8d0f1dd)
C            3.26022357420752        1.33966051289339        0.09725518080400
N            2.41099749110778        0.17818638349203        0.02726317345287
C            2.77379304665028       -1.15399585302852        0.04851610901400
N            1.63653780633278       -1.92503175651331        0.01997204626270
C            0.51090504521926       -1.17321120767274       -0.00711188380747
C            1.00542543742103        0.17202955702587        0.01190106492987
C            0.20597420322634        1.31783824217580       -0.01490913586876
O            0.54725858176806        2.50731134204272       -0.01326321669404
N           -1.16767790197357        0.94597899546079       -0.03622881030565
C           -2.13997431836188        2.04125390118206       -0.05028470228256
C           -1.68379343196293       -0.31047524564662       -0.04963286087658
O           -2.90220884730663       -0.38754764985033       -0.06967756502091
N           -0.89021918478333       -1.49990917911079       -0.04281608380962
C           -1.94538446121405       -2.71683392849889       -0.07505422659867
H            3.79997457888402        1.38554100415327        1.05091026457118
H            4.01208838293638        1.31886416849275       -0.70156152949252
H            2.64199925534989        2.24436157879769        0.01363658697085
H            3.77571222422729       -1.51838994210898        0.05537953181180
H           -1.57182936856429        2.97001024542548       -0.02863357499317
H           -2.74515071872416        1.99246496073234       -0.95300892181702
H           -2.78490793827888        1.97904123836152        0.82264097608745
H           -1.86843711499943       -3.34884811205251        0.80737838621887
H           -1.83582190840320       -3.32840071399429       -0.96604367315838
H           -2.90618950903038       -2.19816824804994       -0.08647247959378
H            1.67001565902766       -2.93001707986048        0.01642042648065
