25
 energy: 45.526352968769 xtb: 6.6.1 (8d0f1dd)
C            3.34854731191133        1.44052051172412        0.08867219091887
N            2.50458032562772        0.27105344595565        0.08459562464399
C            2.88518765381687       -1.01378297057476        0.06691301399984
N            1.79833559679995       -1.83621631695541        0.01829062794297
C            0.66329885500686       -1.05383035376200        0.00111687676817
C            1.13803337078069        0.27248589132552        0.04166877194499
C            0.23558246043769        1.39013624529683        0.01748953703113
O            0.58666570029515        2.56620068093918        0.02594156704835
N           -1.06385577488092        0.95725179480695       -0.03014812330082
C           -2.09458708992710        1.98807277068652       -0.05178576974365
C           -1.51889666377373       -0.38902119616369       -0.04352181209765
O           -2.72746509818898       -0.47628123352394       -0.06323642127365
N           -0.61145961149785       -1.40553855459244       -0.03696422160021
C           -2.63811629052062       -3.10517262146570       -0.09457427853381
H            3.87895867767688        1.51366115915564        1.03736173906889
H            4.07399130006111        1.39553876666380       -0.72061447612929
H            2.74789716038485        2.34306148524413       -0.04729912578771
H            3.89448539568477       -1.36230225971713        0.06296336351836
H           -1.55400733844910        2.93062724939250       -0.03478450368124
H           -2.70730647585772        1.90486764480467       -0.95046831339162
H           -2.74657169357626        1.88851397282881        0.81681226189037
H           -2.35548071508886       -3.54419812878483        0.81691900865123
H           -2.33043676642836       -3.50877569768852       -1.01455494837914
H           -3.28776500773837       -2.27314805406276       -0.08644802304773
H            1.85101229198270       -2.85078684156606        0.01604346043741
