25
 energy: 38.493200659407 xtb: 6.6.1 (8d0f1dd)
C            3.47988007366517        1.58567516233572        0.09237648908701
N            2.65040377333796        0.40970469599406        0.05309311295808
C            3.05987080957269       -0.85067173265990        0.05103223876813
N            1.99378109649671       -1.67892023271437        0.02075850708294
C            0.84427567207581       -0.91393072466199        0.00348115743850
C            1.28229054898953        0.41730393797476        0.02521145968952
C            0.31840949342122        1.48955409691141        0.00137297738778
O            0.58909070171868        2.68344197387752        0.00362377665311
N           -0.96264248961451        0.99313760335071       -0.02769024267320
C           -2.06303039175527        1.93932882624652       -0.05054820242153
C           -1.35053932457023       -0.38518625456184       -0.04095454266782
O           -2.53409858011891       -0.62832891115084       -0.06528701275536
N           -0.38711612126640       -1.33887357280314       -0.02748709363282
C           -3.32067380158868       -3.52593087757722       -0.11011037201030
H            3.98673323981117        1.66095000955502        1.05553422560540
H            4.22743768700324        1.55025192998264       -0.69998482056030
H            2.83660451974522        2.45602662420837       -0.04132609349777
H            4.08313926084268       -1.16700654330344        0.06887045145113
H           -1.64457493934979        2.94276647085425       -0.02974939999967
H           -2.65840136241097        1.79194765653182       -0.95203288588622
H           -2.70784089349035        1.77503946410536        0.81314592981130
H           -3.10257811086714       -4.02332659003095        0.80995455880736
H           -3.06877929034669       -3.99521405931496       -1.03632533397945
H           -3.65609925744558       -2.51281733826638       -0.10093056507805
H            2.01667199111710       -2.68589282613926        0.01100559261685
