25
 energy: 32.179610104769 xtb: 6.6.1 (8d0f1dd)
C            3.26624382819986        1.36024127891325        0.09748736454931
N            2.42235850946902        0.19611551208204        0.03824717502197
C            2.79447808187881       -1.13495968654465        0.05201248995973
N            1.66248913242292       -1.91617047316983        0.02147073679058
C            0.53424045683959       -1.16679396730692       -0.00495752036483
C            1.02057766968853        0.18009158776684        0.01812725996084
C            0.21301567695620        1.31978429449343       -0.01181375601695
O            0.55555279257227        2.50972360637187       -0.00944282963654
N           -1.15593998139667        0.94027255496665       -0.03651517163368
C           -2.13037621779424        2.03316449169496       -0.05094385401854
C           -1.66801127510370       -0.32301949115467       -0.04843666002161
O           -2.88724395439490       -0.39438583027963       -0.06828023590909
N           -0.87077918780493       -1.50136873071780       -0.04277675825610
C           -2.01395726404995       -2.74102092382323       -0.07743185426145
H            3.81035010663566        1.40621803758005        1.04732084607984
H            4.00938385797181        1.34737797856855       -0.70790941179149
H            2.64982791774230        2.26004801674045        0.01100131316762
H            3.79688860353584       -1.49500252273721        0.05496660295925
H           -1.55332718448183        2.95631589620017       -0.02957582188571
H           -2.73480286705183        1.98407569251239       -0.95405167730091
H           -2.77474349407294        1.97101787449278        0.82239994417406
H           -1.94936127221248       -3.36068761727909        0.80733082634008
H           -1.92535491564885       -3.34947614524027       -0.96861328574034
H           -2.94447774549209       -2.16756065472300       -0.08794522155007
H            1.70473180506469       -2.92158125308035        0.01821875209821
