25
 energy: -2.648573959984 xtb: 6.6.1 (8d0f1dd)
C            3.25835509420543        1.23173073276713        0.09139655774105
N            2.34544416642029        0.12782812425150        0.02881436521653
C            2.67130701252379       -1.21824623977823        0.03454830792592
N            1.50282419295729       -1.93684095013784        0.00770792286397
C            0.44274107082289       -1.10573948564523       -0.00920203076282
C            0.95016843409690        0.20270712596048        0.00576301348763
C            0.13819628683312        1.35509288689373       -0.00951657445577
O            0.48349874255627        2.54160475841108       -0.01236197760874
N           -1.24596939509923        1.00126172270018       -0.03218200806118
C           -2.20243545680716        2.10170488346824       -0.05017430128432
C           -1.77314931673450       -0.24950272671587       -0.04799770380984
O           -2.97747311446586       -0.42626343085169       -0.07102701804485
N           -0.91350240879197       -1.38105060304625       -0.03772373384327
C           -1.64485336328744       -2.65729850813943       -0.06411152121874
H            3.75511615345026        1.27506609668803        1.06696072890301
H            4.02803407570577        1.13868810941603       -0.68145558619441
H            2.69686783760354        2.15991014614629       -0.05448502896809
H            3.65550609729177       -1.62632714132255        0.04679592541517
H           -1.63756771655546        3.03451988170955       -0.02592384271787
H           -2.80729883783559        2.04692314859527       -0.95492900522458
H           -2.85795549162879        2.02896245848490        0.81681204644248
H           -1.43360173889431       -3.25724981836854        0.82405066951715
H           -1.40693110113528       -3.23543807859449       -0.95993021799820
H           -2.69627737362300       -2.40003121344468       -0.07697201414717
H            1.47887063389071       -2.94008834380534       -0.00161361187780
