25
 energy: 15.873745035281 xtb: 6.6.1 (8d0f1dd)
C            3.25992514634325        1.31772688622084        0.09610228246116
N            2.39652411951895        0.16597685502471        0.01991378405410
C            2.75446286522253       -1.17019020207672        0.04481210540109
N            1.61127327107878       -1.93174079151527        0.01747072106497
C            0.49324073499153       -1.17301450911701       -0.01017001414441
C            0.99037919640965        0.16869341542189        0.00532634146487
C            0.18979068520377        1.31787622175734       -0.01650184270949
O            0.53092459958018        2.50650492603989       -0.01601152945568
N           -1.18545404737471        0.95126449685995       -0.03608882966921
C           -2.15365514591389        2.05024228754012       -0.04985471077967
C           -1.70278795491194       -0.30446200551308       -0.05062135155047
O           -2.91830137071743       -0.39287011508238       -0.07105156787821
N           -0.90240235692641       -1.49207408999207       -0.04391842671274
C           -1.88532075769508       -2.70235835648860       -0.07259071064813
H            3.79023799904986        1.36029351655985        1.05542124732859
H            4.01830327627677        1.28212473839422       -0.69582772358157
H            2.65505370686964        2.23158353807315        0.00231558004585
H            3.75369451344628       -1.54358001852452        0.05542638956697
H           -1.58504966863995        2.97922643238946       -0.02735265285122
H           -2.75958168881955        2.00441251694591       -0.95267128591835
H           -2.80054422986145        1.98943915500534        0.82214269675795
H           -1.78092839044795       -3.33394313504743        0.81047870025143
H           -1.75349048534855       -3.31406887778461       -0.96483317962678
H           -2.87147563303624       -2.24201928941017       -0.08310882259013
H            1.63367020353343       -2.93592891090294        0.01364004438318
