  25
        -42.08286635
 C          3.1555687791        1.0766241072        0.0250027944
 N          2.2809983922        0.0729557751        0.0120452172
 C          2.5466385715       -1.2535854981        0.0095087622
 N          1.3864534776       -1.9548627605        0.0037746837
 C          0.3497450628       -1.0661284922        0.0048248484
 C          0.8956439537        0.2028871467        0.0059640321
 C          0.0705491349        1.3943647972        0.0029226772
 O          0.4762943610        2.5301021680       -0.0092961024
 N         -1.2839953467        1.0614344139        0.0132783569
 C         -2.2443992942        2.1585267707        0.0138280903
 C         -1.8550298816       -0.1961743895        0.0136264754
 O         -3.0392104601       -0.3708574040        0.0171120051
 N         -0.9681281100       -1.3031329177        0.0101326127
 C         -1.5212586817       -2.6427170855        0.0056782793
 H          4.2050608761        0.8559689551        0.0551196700
 H          5.0177974904        2.4733492830       -1.7858398641
 H          2.7721347413        2.0821254961        0.0198643279
 H          3.5244656907       -1.6900341417        0.0120165893
 H         -1.6910231632        3.0928695221       -0.0235997939
 H         -2.9021978084        2.0704135068       -0.8496353112
 H         -2.8524515131        2.1144923287        0.9163766834
 H         -1.2072474637       -3.1900027044        0.8947060876
 H         -1.2191099878       -3.1790693633       -0.8939660755
 H         -2.6061745550       -2.5444561258        0.0141600734
 H          1.3206615288       -2.9626782260        0.0021200486
