  72
        -99.41902389
 N         -2.5648310783        2.9645824366        2.5441529343
 C         -2.1860941514        2.1509675763        1.5090129853
 C         -2.7323047709        2.5150127331        0.3388098796
 C         -4.6884502293        0.0454375489        1.7349046186
 C         -5.2166418095        0.0535356908        0.4485881661
 C         -4.9459186464       -0.9833419483       -0.4338268941
 O         -5.4002799505       -1.0710248701       -1.7069143593
 C         -6.3511685163       -0.1328843148       -2.1524322421
 C         -4.1292410452       -2.0613264264       -0.0067717009
 O         -3.9097530890       -3.0296288788       -0.9338730574
 C         -3.3436402012       -4.2497920294       -0.5179597762
 C         -3.6136959806       -2.0561937195        1.2800129730
 C         -3.8890728813       -1.0033653076        2.1470579411
 C         -2.5269912027        1.9389797367       -1.0207186936
 C         -1.8069219298        0.5913962616       -1.0002830265
 C         -0.3884089914        0.7170729412       -0.6063503235
 N          0.3661139164       -0.3161795207       -0.2532721566
 C          1.7744400804       -0.1572320655        0.0179793176
 C          2.6426065105       -0.5421034526       -1.1961686231
 C          4.0972188846       -0.3525695195       -0.8673355490
 C          4.6927997521        0.8905856150       -0.9990170428
 C          6.0260988220        1.0779513284       -0.6678198183
 C          6.7910226631        0.0224161579       -0.1943608060
 O          8.0903170799        0.0882926798        0.1572827314
 C          8.7699238172        1.3168538045        0.0423847577
 C          6.1893580118       -1.2577639768       -0.0571483769
 O          7.0066339432       -2.2289639980        0.4015156324
 C          6.5119490579       -3.5397539005        0.5324561541
 C          4.8541865615       -1.4201595525       -0.3899079908
 C         -0.1721748598       -1.6534894661       -0.2539982360
 C         -3.6446574396        3.7010647481        0.5671164228
 C         -3.6212507878        3.8562878164        2.1031812883
 C         -3.1437463605        4.9582289002       -0.1471033121
 H         -5.8523169405        0.8694834558        0.1491634596
 H         -7.2338520214       -0.1183383431       -1.5066802789
 H         -6.6405549175       -0.4577959814       -3.1499797036
 H         -5.9271309544        0.8753378485       -2.2113323877
 H         -3.8999997136       -4.6863093817        0.3162349043
 H         -3.4085572057       -4.9120833305       -1.3791305497
 H         -2.2919729962       -4.1338961581       -0.2325522863
 H         -3.0126904579       -2.8835293208        1.6257997826
 H         -3.4858333011       -1.0229217761        3.1467649744
 H         -3.5042625813        1.8095693587       -1.4933664173
 H         -1.9663517095        2.6451987820       -1.6418785658
 H         -2.3393699639       -0.0855564848       -0.3255423498
 H         -1.8706423155        0.1409802284       -2.0000000238
 H         -1.4836542473        1.3594104175        1.6996632618
 H          0.0770167810        1.6885637969       -0.6102424921
 H          2.0464214919       -0.7847482209        0.8709724537
 H          1.9738932503        0.8829605900        0.2816597794
 H          2.3641983815        0.0914820651       -2.0399956858
 H          2.4526488629       -1.5811556059       -1.4679133969
 H          4.1218723098        1.7261540271       -1.3746404588
 H          6.4632512426        2.0555072931       -0.7881133489
 H          8.3194289668        2.0852160635        0.6782569592
 H          8.7928376596        1.6669775269       -0.9940339588
 H          9.7860441085        1.1206515871        0.3791287161
 H          7.3514370120       -4.1344099354        0.8874639035
 H          5.6986885139       -3.5916096785        1.2637221237
 H          6.1679265435       -3.9371306850       -0.4276301184
 H          4.3902293253       -2.3894029362       -0.2933687792
 H         -0.5474218360       -1.9248926560       -1.2431528923
 H         -1.0012136146       -1.7262078815        0.4544211283
 H          0.6020614126       -2.3584868641        0.0371392527
 H         -4.6564155513        3.4855797634        0.2093573506
 H         -4.9193260671        0.8498212704        2.4046519598
 H         -4.5818566782        3.5808234545        2.5525919679
 H         -3.3903319392        4.8814782607        2.4033321806
 H         -2.1242145390        5.1829865509        0.1560418470
 H         -3.1674072658        4.8198472540       -1.2246595562
 H         -3.7764843784        5.8064709848        0.1005417706
 H         -2.5602624913        2.6331023364        3.4945864971
