  72
        -99.37346818
 N         -0.5182864345        2.0001906497        1.6000047989
 C         -1.5206230980        1.9587697030        1.0469942538
 C         -2.7678650668        1.9356556915        0.3114898838
 C         -3.3832124952        0.5449375146        0.3597735560
 C         -4.4800226753        0.2447834733       -0.4493580499
 C         -5.0655970126       -1.0101813431       -0.4261452233
 O         -6.1190830088       -1.3955005535       -1.1738378829
 C         -6.7351094408       -0.4673002690       -2.0349897029
 C         -4.5450373018       -2.0117862464        0.4389710088
 O         -5.1721546611       -3.2026084869        0.3854530147
 C         -4.7451717866       -4.2409291448        1.2364720937
 C         -3.4650061012       -1.6991553510        1.2481883336
 C         -2.8902121055       -0.4345165918        1.2074970834
 C         -2.4278930818        2.3416587234       -1.1423585162
 C         -1.5888398299        1.2748589479       -1.8690245371
 C         -0.2497102631        1.1421846267       -1.2585727683
 N          0.3060618564        0.0275641257       -0.8337275258
 C          1.6501538813        0.0511942369       -0.3039919586
 C          2.6721554997       -0.3423055739       -1.3873444140
 C          4.0787007634       -0.2031458996       -0.8772847083
 C          4.7094721361        1.0315467997       -0.8896220579
 C          6.0106594054        1.1693265829       -0.4341970905
 C          6.7093706858        0.0710498314        0.0480969359
 O          7.9756854658        0.0809049508        0.4994255442
 C          8.7055854791        1.2862639737        0.4807069633
 C          6.0654689703       -1.1979217733        0.0778031831
 O          6.8158565975       -2.2070111146        0.5590983075
 C          6.2782571034       -3.5071214514        0.6074962344
 C          4.7617449384       -1.3098436948       -0.3809775020
 C         -0.3327206354       -1.2586091111       -0.9636526032
 C         -3.7451603131        2.9585253249        0.9709714399
 C         -4.0798656620        2.5233786180        2.3969711147
 C         -3.1796669639        4.3773565236        0.9820621569
 H         -4.8880178490        1.0041328514       -1.0960586545
 H         -7.1369453177        0.3878238353       -1.4830999986
 H         -7.5541408880       -1.0069470186       -2.5062931218
 H         -6.0441360419       -0.1151367515       -2.8078946014
 H         -4.8344320207       -3.9591214757        2.2896657058
 H         -5.4082749048       -5.0786084564        1.0299326035
 H         -3.7126343142       -4.5349809539        1.0224896660
 H         -3.0601594806       -2.4319002262        1.9268310982
 H         -2.0601838965       -0.2188797482        1.8631507224
 H         -3.3516166939        2.5062516130       -1.6965853131
 H         -1.8705997444        3.2788308992       -1.1308124751
 H         -2.1260372918        0.3273691891       -1.8858463748
 H         -1.4641326763        1.6140844824       -2.9039350628
 H          0.3294944404        2.0456132185       -1.1419665139
 H          1.0441587592        4.3168689490       -0.8752096000
 H          1.7135766447       -0.6403909141        0.5382916146
 H          1.8732149948        1.0532708210        0.0644374811
 H          2.5299544778        0.3139162788       -2.2483832862
 H          2.4911633123       -1.3699900793       -1.7048437920
 H          4.1908859495        1.8980014082       -1.2708264030
 H          6.4776768081        2.1398980285       -0.4666506540
 H          8.2368613164        2.0487158985        1.1098614499
 H          8.8170390538        1.6698669500       -0.5378793555
 H          9.6861851125        1.0391981147        0.8828275908
 H          7.0718428863       -4.1361415034        1.0060129848
 H          5.4094029540       -3.5570701626        1.2713591396
 H          6.0000734329       -3.8639535815       -0.3890742922
 H          4.2688416237       -2.2693252006       -0.3709362819
 H         -0.5087985003       -1.5068352666       -2.0116563983
 H         -1.2891547977       -1.2658057143       -0.4349746932
 H          0.3059348318       -2.0224981735       -0.5289250576
 H         -4.6661600604        2.9508151567        0.3785200704
 H         -3.1783068668        2.4799972701        3.0048104449
 H         -4.5546851364        1.5448681723        2.4101338567
 H         -4.7615991398        3.2383116235        2.8497695171
 H         -2.2127754309        4.4042625718        1.4805393596
 H         -3.0705747463        4.7811680080       -0.0212173901
 H         -3.8574430640        5.0293764727        1.5271750109
 H          0.9751536845        4.1569488229       -0.1151394309
