25
 energy: 0.000000000000 xtb: 6.6.1 (8d0f1dd)
C            3.23720163006194        1.16630919979326        0.08434469647475
N            2.29877817382611        0.07527477071623        0.03981603040599
C            2.58028210190900       -1.21425402444508        0.03006176031096
N            1.43813958087363       -1.93419271955128        0.00098261760884
C            0.39035688448383       -1.05887472636071       -0.00790371836672
C            0.93510056364412        0.21347819449412        0.01709077491437
C            0.09450143893243        1.40504303904423       -0.00410947031874
O            0.49712751527797        2.54126714362870       -0.00342325688240
N           -1.25076640035757        1.06271879480407       -0.03085478223738
C           -2.21907211982101        2.15522099834493       -0.05001256985998
C           -1.81739487048744       -0.20012725993278       -0.04692818574614
O           -2.99983886758376       -0.37846417018721       -0.07008878229737
N           -0.92618586207120       -1.30210215599479       -0.03682761578324
C           -1.46982264913417       -2.64643102187190       -0.06029820460571
H            3.71247264356769        1.21471455160235        1.06488849150277
H            4.00791497605742        1.03430808813993       -0.67357694370751
H            2.69910007168542        2.09770118228144       -0.09130154882931
H            3.56654120610678       -1.63682992603973        0.04233140067262
H           -1.67107961066214        3.09322851271934       -0.02552706933167
H           -2.82428953597071        2.09428624779827       -0.95318082946668
H           -2.87644029173232        2.07745725625962        0.81450067533302
H           -1.17061996399332       -3.19584890659852        0.83242232437030
H           -1.14560257411436       -3.17511610292205       -0.95688275822323
H           -2.55549792440841       -2.55659984320617       -0.07459039797972
H            1.38130855184625       -2.94313852034425       -0.01389874181052
25
 energy: -2.816268180103 xtb: 6.6.1 (8d0f1dd)
C            3.24626410685062        1.19245414689857        0.08523163094411
N            2.31244258991006        0.10831553497083        0.02938031609407
C            2.60976715220914       -1.21679922163088        0.01442757365996
N            1.44262134243476       -1.93155475734236       -0.01486872917407
C            0.40384269562877       -1.05680992214559       -0.00632276441729
C            0.93405142016951        0.22718106792834        0.00938587035876
C            0.10767479254628        1.40173308240345       -0.00792821196858
O            0.50414513648673        2.56760630535640       -0.00507482534999
N           -1.25246304086901        1.05457745661047       -0.03572901801760
C           -2.21146088436135        2.15490062070240       -0.04676300302438
C           -1.81236800523271       -0.20107092457485       -0.05309051256918
O           -3.00923341737718       -0.37885863814534       -0.07807829194503
N           -0.92781353047782       -1.31294614723007       -0.01815134725954
C           -1.48524743851798       -2.66328073168831       -0.03300354063846
H            3.72284221034520        1.23367595593160        1.06828890798796
H            4.01718044194867        1.06315066330530       -0.67584694967902
H            2.70057815094079        2.11833974964892       -0.08609968041479
H            3.59035931582395       -1.63566128249894        0.02417839373357
H           -1.65246839408680        3.08850319757896       -0.02216111722198
H           -2.82257354233402        2.10673223555123       -0.94748183544691
H           -2.86504319314394        2.08510001338311        0.82218608610413
H           -1.36523798828741       -3.32736987284094        0.87005237969033
H           -1.09668196904672       -3.21311056479952       -0.88718429851488
H           -2.56331514128433       -2.54080820222500       -0.14114628931786
H            1.38435185766098       -2.93497116297576       -0.03716684746603
25
 energy: 7.695479192775 xtb: 6.6.1 (8d0f1dd)
C            3.25567673366027        1.22358720283184        0.08528055897672
N            2.32541284715642        0.14555244683382        0.00871779641964
C            2.64186164377451       -1.21019691037400       -0.01472850266797
N            1.45363547500777       -1.91908031626076       -0.04055803249859
C            0.42023248711910       -1.05795442396704       -0.00477240320181
C            0.93108903366308        0.24162473541075       -0.00116516515087
C            0.12659233977721        1.39249138570277       -0.01178158976513
O            0.50421332984687        2.58181860454957       -0.00770452646105
N           -1.25373579259003        1.04336847980700       -0.03992418036121
C           -2.19800777215718        2.15633865841207       -0.04207911723476
C           -1.79908804830403       -0.20605119558016       -0.04735735865806
O           -3.00488677083369       -0.37924122750826       -0.09096067008197
N           -0.92804418100186       -1.33734050600814        0.02130575996404
C           -1.51553637554358       -2.68869769953280        0.00294531522886
H            3.73489613987658        1.25815007567197        1.07030316829268
H            4.03065789897322        1.10762217824731       -0.67681617912345
H            2.70575035154433        2.14808013781632       -0.07673560673732
H            3.61846902308517       -1.61952972833225       -0.00627193563296
H           -1.62349111521921        3.08335866696679       -0.01826988359090
H           -2.81889846706059        2.12612467782784       -0.93756692829618
H           -2.84501453775289        2.09833793610423        0.83362209601652
H           -1.66833035916809       -3.48864091885383        0.92645197600112
H           -1.00459617590154       -3.27766983651812       -0.76992139532050
H           -2.57874086751172       -2.51388731170506       -0.26306897300075
H            1.40209782749609       -2.91913650936988       -0.07191032696879
25
 energy: 21.667796435505 xtb: 6.6.1 (8d0f1dd)
C            3.25902472353370        1.24610084517461        0.08769378414003
N            2.33131674582771        0.16552192593680       -0.01313439226926
C            2.65868773337206       -1.19849937201152       -0.04655554979224
N            1.46809453823922       -1.90779478316856       -0.06550997228132
C            0.42556234508301       -1.06468277799800       -0.00435326856945
C            0.92922971118924        0.24557517150605       -0.00877831936010
C            0.13844699061261        1.39137890885862       -0.01327382590739
O            0.50337336566799        2.58701472067529       -0.00890190171092
N           -1.25284008546519        1.03969461936910       -0.04255167250599
C           -2.18355320102961        2.16274882880592       -0.03873906105390
C           -1.79117263713076       -0.21022333478415       -0.04104269539576
O           -2.99878374653722       -0.37729756632053       -0.10442799044026
N           -0.93325524871922       -1.36151131617563        0.05796630097084
C           -1.55368790687019       -2.71533156310697        0.03088106330313
H            3.73781822970461        1.27352461555874        1.07467925343789
H            4.04135463231929        1.14950568759382       -0.67122454481854
H            2.71108994886758        2.17478070310173       -0.06273385232848
H            3.63901102578596       -1.59771021077075       -0.03903660391009
H           -1.59296542711089        3.08120969000392       -0.01625404311999
H           -2.81069272814913        2.14748011012181       -0.93008846622133
H           -2.82369974132580        2.11487652830377        0.84267666289816
H           -1.90994911404831       -3.58800870712165        0.95960424026274
H           -0.92831980758725       -3.34626051095815       -0.64030405819884
H           -2.58184458233208       -2.51459236471593       -0.37202066326100
H            1.42996890403890       -2.90847124570636       -0.10753652772066
25
 energy: 30.991450206131 xtb: 6.6.1 (8d0f1dd)
C            3.25772275743861        1.25787579472883        0.09271805454177
N            2.33236861852974        0.17188696820182       -0.03165206822742
C            2.66209096468944       -1.18480656388060       -0.07272858777908
N            1.48108022031481       -1.89780562132748       -0.08459997583522
C            0.42365125640901       -1.07033331563186       -0.00792860126157
C            0.92902156443786        0.24403682316331       -0.01208299629210
C            0.14432372331152        1.39650158857654       -0.01347496921024
O            0.50484325921880        2.58611584969765       -0.00937725900566
N           -1.25006888221469        1.04269742584204       -0.04319854182931
C           -2.17194671767029        2.17165781423662       -0.03921230197001
C           -1.78817441488756       -0.21051753422870       -0.03565471454312
O           -2.99257259718995       -0.37305630316678       -0.11644933952732
N           -0.93893521401909       -1.37581236871884        0.08154066242725
C           -1.57966442949006       -2.73486487448955        0.04445269555155
H            3.73162071078862        1.27763022282354        1.08247561343043
H            4.04720506858950        1.17758929485042       -0.66081807487179
H            2.71332325345631        2.19120171081982       -0.04912033517735
H            3.64841908109089       -1.57621199186315       -0.06307084433163
H           -1.57011672248781        3.08315907466751       -0.01929219776909
H           -2.80112781573037        2.16535283123375       -0.92834588022365
H           -2.80765024830336        2.13230416596259        0.84523035881639
H           -2.06018966572137       -3.65601787674019        0.95932389167935
H           -0.90441359825643       -3.38931901721022       -0.53265166404590
H           -2.55637630244620       -2.53957021366439       -0.42316960831405
H            1.45778079807833       -2.90066528171069       -0.13587942008495
25
 energy: 35.340850829215 xtb: 6.6.1 (8d0f1dd)
C            3.25462215686818        1.25675667265774        0.09123282492215
N            2.33047425631484        0.16812379815968       -0.04438176213043
C            2.65478006081637       -1.17491354081922       -0.08832448238630
N            1.48643327882395       -1.89204986576898       -0.08961290809313
C            0.41838847706894       -1.07151804157496       -0.00849304436541
C            0.92952346282094        0.24164257848530       -0.00845719064654
C            0.14516803978908        1.40278477968414       -0.01135420748649
O            0.50817034645191        2.58360266418453       -0.00743650415590
N           -1.24693392910105        1.04765298833910       -0.03883665831021
C           -2.16831509041239        2.17680955739350       -0.03557877538302
C           -1.78967454808881       -0.20788800897708       -0.03493072229535
O           -2.98960212469117       -0.36977647104048       -0.12150032947169
N           -0.94111002052719       -1.37616895733693        0.09043684579839
C           -1.58417477677069       -2.74053010101258        0.04773676276323
H            3.72400418941793        1.27087181839770        1.08240912965392
H            4.04535584873337        1.18048951660123       -0.65961213720719
H            2.71190249138615        2.19155874477908       -0.04834723597555
H            3.64472782471503       -1.56423703881576       -0.07633152928258
H           -1.56560239127163        3.08694377088087       -0.01822810153011
H           -2.79777660097095        2.17193075225635       -0.92373182272044
H           -2.80197876430485        2.14078150962865        0.84972323696403
H           -2.14245931294430       -3.67559916259436        0.96222767506111
H           -0.86810635451258       -3.40560841265491       -0.44625236055019
H           -2.51792777576444       -2.55644231442698       -0.48757949009044
H            1.47232592408959       -2.89618863425368       -0.14774331693455
25
 energy: 35.427682201219 xtb: 6.6.1 (8d0f1dd)
C            3.25290444590656        1.25161340092512        0.08932005634400
N            2.32782367211187        0.16288645594101       -0.04975464923080
C            2.64557074638544       -1.17088995752042       -0.09529429794425
N            1.48407357380828       -1.89089403683097       -0.08883795524873
C            0.41272855021712       -1.06988885740198       -0.00985910386528
C            0.92887634826478        0.24108263274006       -0.00390918905855
C            0.14343317997230        1.40527193723964       -0.01011335243969
O            0.51049649303692        2.58201645890597       -0.00710670695143
N           -1.24502590841230        1.05075176669065       -0.03304609176853
C           -2.16834674113471        2.17915420898655       -0.03281601912460
C           -1.79359836855669       -0.20426576622916       -0.03234344785018
O           -2.99091058729606       -0.36615023291703       -0.12349615097370
N           -0.94300333647168       -1.36977729816506        0.08879086295208
C           -1.57903299513171       -2.73670063461401        0.04256971186241
H            3.71996341528111        1.26392902151055        1.08079725065577
H            4.04362311647605        1.17346372358298       -0.66033047838338
H            2.71129230179322        2.18655888688769       -0.05129087197797
H            3.63603667126179       -1.56281890166687       -0.07804753753009
H           -1.56818695413161        3.09075363909037       -0.01711614532516
H           -2.79789597074088        2.17141869272422       -0.92092573959144
H           -2.80196599509786        2.14346428748591        0.85235957135457
H           -2.15859276985502       -3.66835542224319        0.95459060795002
H           -0.84578490932173       -3.40330774765932       -0.39713252933513
H           -2.48392964408132       -2.57533930149069       -0.52029122417371
H            1.47166633365238       -2.89494835380007       -0.14968267419893
25
 energy: 34.232660261221 xtb: 6.6.1 (8d0f1dd)
C            3.25230781659831        1.24738540708511        0.08601650366807
N            2.32601779492325        0.15986465734866       -0.05227353926678
C            2.64017020943016       -1.17184226692308       -0.10034165360157
N            1.47929887022556       -1.89300009749051       -0.08697812423087
C            0.40889969728100       -1.06857830117216       -0.00909332751758
C            0.92743107951049        0.24140894224308       -0.00090328476302
C            0.14104841656501        1.40509093213953       -0.00921829626910
O            0.51155053056719        2.58242583599178       -0.00658827560339
N           -1.24515402075340        1.05199619325441       -0.02841863008751
C           -2.17000313048803        2.18005630097614       -0.02847915655900
C           -1.79749682413654       -0.20148368878912       -0.03227637079321
O           -2.99441550092612       -0.36358917438638       -0.12233048849979
N           -0.94549370094525       -1.36389739017963        0.08668189027235
C           -1.57408019015095       -2.73137719855588        0.04001143993905
H            3.71933444040419        1.25909443323079        1.07721093278596
H            4.04215184446384        1.16603643922656       -0.66417474968450
H            2.71085668394718        2.18197315485390       -0.05554512345756
H            3.62947228968957       -1.56749480782713       -0.07779035317848
H           -1.57202971931331        3.09322406330737       -0.01292514517612
H           -2.79988199971244        2.16986575988442       -0.91668209848759
H           -2.80376512035949        2.14281516182930        0.85665211367307
H           -2.16344233718736       -3.64608562559091        0.95820548332118
H           -0.81022552883474       -3.40241859493160       -0.35721044342520
H           -2.46535284014613       -2.58606148843828       -0.56673994199908
H            1.46501590728424       -2.89638004491441       -0.14977546491204
25
 energy: 32.238462040909 xtb: 6.6.1 (8d0f1dd)
C            3.25221212227266        1.24652697337669        0.08629812709097
N            2.32553643061538        0.15935375812650       -0.05103428718015
C            2.63983192005372       -1.17405666642370       -0.10158102998297
N            1.47682061193224       -1.89557388847273       -0.08624962873623
C            0.40836153145282       -1.06884591521368       -0.00920659788450
C            0.92665755266581        0.24122260721957       -0.00079558721098
C            0.13921109430114        1.40287212226071       -0.00974309120497
O            0.51105349989055        2.58185343016654       -0.00768638498550
N           -1.24591187152398        1.05106473062033       -0.02742407337926
C           -2.17080423782322        2.17959988785750       -0.02869672583934
C           -1.79893104777167       -0.20161821750473       -0.03144896944882
O           -2.99628369042209       -0.36394184080760       -0.12022057846902
N           -0.94673504382399       -1.36229513429753        0.08526873494585
C           -1.57194496673288       -2.72883385563107        0.03707566287795
H            3.71945488997606        1.25888209312464        1.07749995162886
H            4.04245567800821        1.16425348811473       -0.66393036768827
H            2.71058953759809        2.18090547103651       -0.05576003183052
H            3.62795746020786       -1.57186397702097       -0.07345759622748
H           -1.57294310263920        3.09305293784221       -0.01293442714181
H           -2.80020310351435        2.16810659879512       -0.91745650789292
H           -2.80541894622509        2.14191554860194        0.85598078548650
H           -2.14438811343684       -3.63221005218438        0.95171963531158
H           -0.81620311782783       -3.39260563092288       -0.35523287654841
H           -2.45844616122637       -2.59024227229296       -0.56473496589254
H            1.46028574192922       -2.89849359419883       -0.14921527365073
25
 energy: 30.922388006240 xtb: 6.6.1 (8d0f1dd)
C            3.25209602686159        1.24678915672301        0.08648798631624
N            2.32525328355356        0.16004528961755       -0.05019185447771
C            2.64111709238740       -1.17612083297944       -0.10342284677083
N            1.47543247515441       -1.89694700843978       -0.08682863750640
C            0.40841625813298       -1.06954648672975       -0.00889080773376
C            0.92591693224802        0.24073179363144       -0.00181981205399
C            0.13834781530315        1.40138811465086       -0.00978596438049
O            0.51075607823298        2.58135234545911       -0.00768486523941
N           -1.24703039371939        1.05076821167501       -0.02777236048684
C           -2.17104498917438        2.17988797191547       -0.02854385079472
C           -1.79943667488010       -0.20174820673450       -0.03135713758774
O           -2.99756620661717       -0.36400123809320       -0.11904442748403
N           -0.94860451632588       -1.36254455493217        0.08534044079763
C           -1.57390171438245       -2.72912124265835        0.03511556989854
H            3.72006597617746        1.25923849805992        1.07763362069844
H            4.04241185821103        1.16483243810270       -0.66402823066609
H            2.71042432348522        2.18126081762419       -0.05512138153106
H            3.62839331072846       -1.57451780204033       -0.07054606134689
H           -1.57209300295338        3.09260005512400       -0.01221740134771
H           -2.80021915681102        2.16899383922844       -0.91746115823957
H           -2.80571924919439        2.14190768798030        0.85611130458698
H           -2.13731549347812       -3.61915834163232        0.94932999236078
H           -0.81315325897958       -3.39389129533141       -0.35332927359723
H           -2.45831177680001       -2.59347977801359       -0.56436973921886
H            1.45797967077583       -2.89969083003517       -0.15056920804799
25
 energy: 28.386033873726 xtb: 6.6.1 (8d0f1dd)
C            3.25161810819555        1.24729254653436        0.08593302896928
N            2.32470583467196        0.16114751574879       -0.04892371591550
C            2.64387925708154       -1.17933968709675       -0.10767183301258
N            1.47408495008838       -1.89912486427119       -0.08675900031960
C            0.40922636659196       -1.07137654340164       -0.00611586657687
C            0.92494921983211        0.23909083439078       -0.00333288344236
C            0.13680827862594        1.39878770520524       -0.00931012135893
O            0.51006150314331        2.57974121666880       -0.00782304041347
N           -1.24887832112236        1.04989201612279       -0.02839300185037
C           -2.17146694769615        2.17975076979738       -0.02848894654139
C           -1.79943689522826       -0.20314512186694       -0.02964366127950
O           -2.99879201926220       -0.36571890659279       -0.11565811429939
N           -0.95103407490860       -1.36392276243160        0.08960902098791
C           -1.57733411130360       -2.73161984763999        0.03480772939431
H            3.72106690664713        1.25993733242837        1.07684885235452
H            4.04171120581554        1.16603969573464       -0.66521548506005
H            2.70988202508368        2.18196267292994       -0.05468862323733
H            3.62988059219081       -1.57799859786341       -0.06447687203100
H           -1.57064423395503        3.09106428522179       -0.01158411306005
H           -2.80029431450868        2.17004050147813       -0.91752145756290
H           -2.80608577327134        2.14180939295220        0.85620475479455
H           -2.12645627555899       -3.59563517684353        0.94533056625412
H           -0.81267861014063       -3.39197492564668       -0.35048874361048
H           -2.45855351497815       -2.59599425023146       -0.57351972840851
H            1.45599551190231       -2.90167719915527       -0.15208484862707
25
 energy: 25.822751533370 xtb: 6.6.1 (8d0f1dd)
C            3.25073518253312        1.24699867636738        0.08525294235782
N            2.32351053584203        0.16139183513196       -0.04861424879454
C            2.64510177018345       -1.18116653607094       -0.11346550809443
N            1.47321773003711       -1.90029614317748       -0.08660573329099
C            0.40944304433159       -1.07303582844852       -0.00405483953135
C            0.92406494828905        0.23703515512691       -0.00448544517964
C            0.13565209872773        1.39725355581600       -0.00827634429779
O            0.50960262287559        2.57778056013809       -0.00674208331410
N           -1.25004662586679        1.04934982505345       -0.02923397195799
C           -2.17162936919515        2.17945559453523       -0.02824937489038
C           -1.79906784076863       -0.20474917639614       -0.02842283713931
O           -2.99904260727302       -0.36750549321796       -0.11365509081485
N           -0.95277776905084       -1.36497861692055        0.09413311928935
C           -1.58121086254399       -2.73546760666005        0.03607748654330
H            3.72124491862570        1.25923307890348        1.07597524260088
H            4.04046030388640        1.16656425585791       -0.66632209207016
H            2.70948841194951        2.18218026220497       -0.05413617126235
H            3.63044381286357       -1.57920149003458       -0.05797125063631
H           -1.56947137357504        3.08969716804476       -0.01100242638399
H           -2.80033660064773        2.17117411857093       -0.91722072339968
H           -2.80602394853855        2.14182822437059        0.85653343265925
H           -2.11874381106103       -3.57076896418299        0.93866062530561
H           -0.81144304241467       -3.39370441815764       -0.34642709648362
H           -2.45700627923075       -2.59721406543540       -0.58147543228238
H            1.45604941795759       -2.90282536924746       -0.15323828278506
25
 energy: 21.378957853373 xtb: 6.6.1 (8d0f1dd)
C            3.24903264819275        1.24573274055774        0.08381379331702
N            2.32109498310673        0.16084656394084       -0.04954049249191
C            2.64544605835742       -1.18257268889196       -0.12620240794890
N            1.47240512323446       -1.90140798165452       -0.08582361839284
C            0.40916754074447       -1.07556729788430       -0.00005189584401
C            0.92279159138761        0.23345836788508       -0.00511115859853
C            0.13429913089031        1.39556791625792       -0.00584721167837
O            0.50880841300378        2.57431055939833       -0.00429539958176
N           -1.25112678549634        1.04810693365767       -0.03017443984074
C           -2.17157403675505        2.17820574551189       -0.02815710103819
C           -1.79811264694148       -0.20821526369315       -0.02508384137822
O           -2.99849415609923       -0.37084641881313       -0.11172465710196
N           -0.95430479380200       -1.36638419584034        0.10485960879765
C           -1.58759302374489       -2.74379315590887        0.04222998900136
H            3.72065294778516        1.25663583404232        1.07432362029106
H            4.03814057459075        1.16661085744500       -0.66819374376650
H            2.70906738176751        2.18201685744868       -0.05336578281732
H            3.63023603340826       -1.57863316338823       -0.04607870903819
H           -1.56787869590368        3.08728597706038       -0.01106787533232
H           -2.80036711216703        2.17194758902128       -0.91686645673832
H           -2.80552510275731        2.14196317338348        0.85687669340826
H           -2.10969917162086       -3.52799041643139        0.92217094810207
H           -0.81090753168374       -3.39641902259194       -0.34070181405061
H           -2.45172600332423       -2.59779053882694       -0.59468589199472
H            1.45838130176286       -2.90404036951387       -0.15426825913673
25
 energy: 22.871782890135 xtb: 6.6.1 (8d0f1dd)
C            3.24933852736135        1.24559115150353        0.08378339688190
N            2.32157430239762        0.16024689742738       -0.05127755426797
C            2.64390130736503       -1.18008822145483       -0.12635107005018
N            1.47381990603944       -1.89975497218477       -0.08572068747179
C            0.40896026510142       -1.07453832953948       -0.00073754862902
C            0.92358817681706        0.23444572248387       -0.00366941197155
C            0.13560559145934        1.39725484655707       -0.00578633125211
O            0.50897961983668        2.57523471089335       -0.00411780304952
N           -1.24984203067920        1.04826423454017       -0.02949346744450
C           -2.17119979237196        2.17782513108224       -0.02830718111827
C           -1.79756001659636       -0.20805056635748       -0.02503050547412
O           -2.99701640780934       -0.37050094540711       -0.11390769283227
N           -0.95191998923886       -1.36581028985465        0.10548190610588
C           -1.58557396401489       -2.74368607601857        0.04486481410737
H            3.71988464947462        1.25608403965763        1.07449505181797
H            4.03860006734095        1.16630474737325       -0.66777170798393
H            2.70945906064464        2.18182508301045       -0.05377036375165
H            3.62938434570672       -1.57540461876620       -0.04846637569526
H           -1.56864012314566        3.08780765211391       -0.01195047513755
H           -2.80029064257772        2.17078781076379       -0.91686022964596
H           -2.80508177097233        2.14208175056969        0.85679632063456
H           -2.12320975261015       -3.54192572543908        0.92220041529333
H           -0.81191454253401       -3.39780389889313       -0.34248805302585
H           -2.44949275070295       -2.59460170361370       -0.59160175370357
H            1.46086063164480       -2.90255982827539       -0.15327979618862
25
 energy: 22.452363342085 xtb: 6.6.1 (8d0f1dd)
C            3.24937084181920        1.24456761695433        0.08374890905073
N            2.32154877257337        0.15893340930462       -0.05308175062568
C            2.64166330999339       -1.17880570228538       -0.13055566478920
N            1.47353532395432       -1.89958080606787       -0.08501096724178
C            0.40783603282167       -1.07385317337207       -0.00026305584479
C            0.92383584723684        0.23498440259472       -0.00147174761707
C            0.13603357576691        1.39783635279962       -0.00550042003312
O            0.50875265379496        2.57574033190535       -0.00389951456132
N           -1.24907095477394        1.04764916099015       -0.02812927602022
C           -2.17118486398727        2.17700385988044       -0.02844028862689
C           -1.79808722800140       -0.20836228991932       -0.02431422856667
O           -2.99678284637071       -0.37046289889658       -0.11563009264806
N           -0.95033465389878       -1.36435377419548        0.10805902268539
C           -1.58360401918131       -2.74402180509312        0.04916124878659
H            3.71882938189204        1.25457998314057        1.07473779553889
H            4.03902820722098        1.16482058094099       -0.66727830662061
H            2.70964118140792        2.18074741473237       -0.05420080672484
H            3.62728098847990       -1.57419774580864       -0.04744435910775
H           -1.56961365822207        3.08794051682880       -0.01275408962763
H           -2.80034591335172        2.16872657624010       -0.91711287845703
H           -2.80531776322269        2.14183375172612        0.85658176136010
H           -2.12459255518394       -3.53918292113666        0.91630691091365
H           -0.81264595980858       -3.39737666805804       -0.34368296735473
H           -2.44438769886433       -2.59382380995960       -0.59060031007379
H            1.46082666584148       -2.90231376107343       -0.15219102764687
25
 energy: 22.240072772117 xtb: 6.6.1 (8d0f1dd)
C            3.24953450171181        1.24445420196851        0.08403619384010
N            2.32195850746666        0.15859704512601       -0.05359530946643
C            2.64120096444496       -1.17890357726509       -0.13179545911291
N            1.47304474769003       -1.90002337684638       -0.08493049395824
C            0.40742287291905       -1.07362087930892        0.00001245780410
C            0.92397568806754        0.23547921928184       -0.00037967449723
C            0.13609032356421        1.39760084095227       -0.00573096347108
O            0.50854703470482        2.57620757800545       -0.00449619711493
N           -1.24905334273322        1.04723659182291       -0.02713851445570
C           -2.17130367304586        2.17682432291045       -0.02851999929149
C           -1.79875081353003       -0.20819075672726       -0.02414646576363
O           -2.99725710553804       -0.37032850444974       -0.11623684549318
N           -0.95001233475995       -1.36385238521966        0.10854112014040
C           -1.58243914377055       -2.74327539851805        0.05037724868807
H            3.71840873867889        1.25463096448187        1.07525323384420
H            4.03966318171546        1.16444792248208       -0.66660469110581
H            2.70951659239358        2.18035494544783       -0.05449409795844
H            3.62659276167827       -1.57505420760978       -0.04766438980788
H           -1.56992452648096        3.08799014586985       -0.01293869239810
H           -2.80025206293989        2.16782329377063       -0.91742367739118
H           -2.80573151036927        2.14174137442918        0.85634322832423
H           -2.12262248194881       -3.53801741186019        0.91561110422442
H           -0.81257492120291       -3.39640679651004       -0.34534764733117
H           -2.44312227375393       -2.59407506684982       -0.58942142603241
H            1.45930294297436       -2.90261148321203       -0.15227614606845
25
 energy: 22.019424128752 xtb: 6.6.1 (8d0f1dd)
C            3.24956965634085        1.24468630611043        0.08430647089524
N            2.32245833483756        0.15857754813589       -0.05414414184624
C            2.64139879994123       -1.17922123996510       -0.13311120289668
N            1.47282913434042       -1.90041702262313       -0.08511108130561
C            0.40739400876790       -1.07373844634630        0.00042511271896
C            0.92416660855593        0.23571594186755        0.00047050411941
C            0.13615097941147        1.39715119942345       -0.00600760330590
O            0.50830831073103        2.57637204766922       -0.00539408478615
N           -1.24922976693594        1.04688409810944       -0.02612963306016
C           -2.17137226306159        2.17680431154286       -0.02849616469834
C           -1.79914608573016       -0.20805460484491       -0.02399061649782
O           -2.99749749911029       -0.37061521206206       -0.11665927758861
N           -0.94989970790175       -1.36403916733096        0.10929180005734
C           -1.58206664088602       -2.74285459033974        0.05132256279282
H            3.71791192485176        1.25514559500092        1.07579108699084
H            4.04022846968370        1.16474972318003       -0.66587088269896
H            2.70917851151045        2.18030110991105       -0.05476343250851
H            3.62642296142219       -1.57617233577856       -0.04735673563656
H           -1.56981254864327        3.08781559251824       -0.01291074787327
H           -2.79996607372204        2.16742273987527       -0.91766062268530
H           -2.80608258570963        2.14184372977467        0.85616689361768
H           -2.12127178040255       -3.53628115631386        0.91574843195863
H           -0.81273610144664       -3.39621765111522       -0.34670855178936
H           -2.44258666452951       -2.59394198438863       -0.58908027257310
H            1.45786468562117       -2.90288792983856       -0.15309391525304
