72
 energy: -99.338934326212 gnorm: 0.009258591219 xtb: 6.6.1 (8d0f1dd)
N           -1.87107415991716        2.82731856943773        2.23088233579404
C           -1.81802888285980        2.12053715049906        1.20187064150855
C           -2.95853089581693        1.91225962223577        0.24482357331684
C           -3.42206349074541        0.46468218506625        0.31578234178990
C           -4.34824622783990       -0.01059555275560       -0.61504785879868
C           -4.82038966375376       -1.31101071343963       -0.56799688447862
O           -5.72500930189487       -1.84256791638835       -1.41842028770162
C           -6.34232476229868       -1.01075375461939       -2.37197685034273
C           -4.34419970557901       -2.19209244585617        0.43881072153339
O           -4.85379829564125       -3.44157400253184        0.40602247149968
C           -4.50266372603022       -4.34909662953345        1.42373510330637
C           -3.42329717594470       -1.71598240767381        1.35732970734427
C           -2.97185900990045       -0.40293187775970        1.29763388066659
C           -2.39399176208476        2.21620851257288       -1.16793254134570
C           -1.45204404018919        1.13309032632368       -1.72329085900414
C           -0.12584028156618        1.11688398637492       -1.06755247206722
N            0.53676657148137        0.02283137827350       -0.69589604115374
C            1.90427515177298        0.11895312605322       -0.24750887757260
C            2.90151855848605       -0.25063939035370       -1.35982278415705
C            4.30633612711452       -0.03364115998311       -0.86680461200211
C            4.93276631431561        1.14050570883775       -1.08461206249064
C            6.31005882403568        1.42187155257466       -0.59621312398923
C            6.96673527068901        0.23261420494293        0.03185233301543
O            8.25542994661737        0.24427880621881        0.33120330803326
C            9.05751308545342        1.26286717763819        0.20916984889409
C            6.24405947870750       -0.95703448277942        0.29498605007181
O            6.93492832937652       -1.90843552906092        0.96092502349066
C            6.32435866031966       -3.15647615342356        1.19950720645183
C            4.93549945343600       -1.07576648438321       -0.13081611604942
C           -0.04339862384186       -1.29448663830401       -0.79235275595189
C           -4.18129478273193        2.83185331626003        0.53484892154545
C           -4.82667596222517        2.49591383367467        1.87727254174488
C           -3.84020062571736        4.31865760821863        0.48441596234994
H           -4.71709851608967        0.65344753917972       -1.37884616884801
H           -6.85667652032594       -0.16965665815851       -1.89722046472852
H           -7.07231439333453       -1.63921842723616       -2.87829949882493
H           -5.62201056405121       -0.63366750150362       -3.10550024963754
H           -4.77851470304523       -3.96965380269412        2.41215738184730
H           -5.06792846547946       -5.25517601414835        1.21465002085832
H           -3.43226021960218       -4.57874009294289        1.40611507806355
H           -3.05724523450028       -2.35675535096393        2.14314205294963
H           -2.28068324275424       -0.06027995856264        2.05213735774701
H           -3.22745627396391        2.32656679700384       -1.86072800053014
H           -1.86263353694412        3.16818372826819       -1.13749969238127
H           -1.93924455203414        0.16124699499418       -1.66642423360600
H           -1.29413249966951        1.36542647477144       -2.78491260704349
H           -0.90203068986765        1.60107211670469        0.85854507698785
H            0.41751742054778        2.04855191138813       -1.01567304348906
H            2.05091704966564       -0.54317933902478        0.60994537603656
H            2.10670203220962        1.14279000468841        0.07436831726782
H            2.71201929078404        0.38413486879810       -2.22653789438524
H            2.75968018016488       -1.29038472294413       -1.65566969655588
H            4.45523613464409        1.93179752388901       -1.64175708637903
H            6.27967900234310        2.26177486166341        0.11806625351902
H            8.71539298831996        2.24527912614321       -0.09203887969163
H            6.92153736682190        1.77371682633017       -1.44522091480669
H           10.10120430480662        1.06152635583733        0.40121974751597
H            7.07894519759527       -3.76055339413683        1.69945106345090
H            5.45160665986347       -3.05870492510498        1.85236445837244
H            6.03175285434935       -3.64299094013945        0.26437763322306
H            4.38080426068605       -1.98005881761607        0.05352324869359
H           -0.20338183218801       -1.58112623021105       -1.83407035826265
H           -1.00133359504427       -1.32953156665902       -0.26732361873943
H            0.62886629750266       -2.01549227602168       -0.33451371353398
H           -4.91653849198245        2.62765053094088       -0.25181247275055
H           -4.13399319386688        2.70580099000125        2.68565060190614
H           -5.11626328175662        1.44890524044412        1.92277671436937
H           -5.71686825823407        3.10382198705822        2.01571727182798
H           -3.09163613679145        4.55935854321245        1.23276316339268
H           -3.47886753450542        4.61961164576583       -0.49541977205395
H           -4.73486060024260        4.89659371311362        0.70072921276768
H           -1.02668750226380        2.91380983401192        2.78820533279850
