  72
        -99.28720888
 N         -1.6981412862        2.6546117922        2.5452614152
 C         -1.7302998379        1.9610444279        1.5038284444
 C         -2.8769189502        1.9506334758        0.5275125566
 C         -3.4658218385        0.5542227586        0.4458075800
 C         -4.3346890253        0.2217794574       -0.5947163139
 C         -4.8980385089       -1.0347775265       -0.6461594790
 O         -5.7620126630       -1.4229532931       -1.7353300090
 C         -6.6458180834       -0.4386375053       -2.3448686748
 C         -4.6555135847       -2.0057141154        0.3304175631
 O         -5.3155745235       -3.1853042315        0.1554760646
 C         -5.1325118491       -4.2059242715        1.1166321523
 C         -3.7941971670       -1.6723655151        1.3671175994
 C         -3.2122419753       -0.4112827216        1.4131732357
 C         -2.2763478314        2.3610027129       -0.8424702125
 C         -1.3943935931        1.2901653130       -1.5102455407
 C         -0.0631491809        1.1476051715       -0.8785205635
 N          0.5452005360       -0.0085787464       -0.5981849836
 C          1.9417800385       -0.0262851847       -0.2370522291
 C          2.8398124696       -0.4143029784       -1.4281897657
 C          4.2841011982       -0.2686232210       -1.0401518261
 C          4.9517086695        0.9260720152       -1.2463844959
 C          6.2725656024        1.0781319546       -0.8522636102
 C          6.9494605148        0.0367063116       -0.2362366828
 O          8.2281801349        0.0742684799        0.1906084183
 C          8.9755485453        1.2536970552        0.0047940579
 C          6.2723043124       -1.1932529911       -0.0194891186
 O          7.0059768441       -2.1547487163        0.5821841948
 C          6.4254753279       -3.4147266944        0.8150074752
 C          4.9532216915       -1.3225820431       -0.4213539153
 C         -0.1193456341       -1.2785660988       -0.7544626066
 C         -4.0326383469        2.9256994249        0.9071827564
 C         -4.6745685978        2.5439277274        2.2394871166
 C         -3.5938394699        4.3869559306        0.9511659446
 H         -4.5898025716        0.9322098120       -1.3638111683
 H         -7.2053208867        0.1343327684       -1.6174761894
 H         -6.3022221109       -2.1689611393       -1.4052411489
 H         -6.0954690830        0.1502272222       -3.0650151496
 H         -5.4648415705       -3.8825682632        2.1060254259
 H         -5.7470724788       -5.0378802315        0.7796787094
 H         -4.0868946997       -4.5203787833        1.1609832311
 H         -3.5809136888       -2.3797997902        2.1509843336
 H         -2.5683377245       -0.1753216578        2.2459515708
 H         -3.0925750754        2.6047141689       -1.5221570825
 H         -1.6849860449        3.2662834289       -0.7041993054
 H         -1.9245042652        0.3399243088       -1.5472429052
 H         -1.2351527389        1.6194751711       -2.5459588680
 H         -0.8947097261        1.3253895818        1.1621160749
 H          0.5247709367        2.0423238776       -0.7467375979
 H          2.0948097134       -0.7356551149        0.5809624190
 H          2.2334226966        0.9658731079        0.1131216765
 H          2.6112576982        0.2456514893       -2.2667479305
 H          2.6286274268       -1.4414995779       -1.7281718580
 H          4.4485871436        1.7502277746       -1.7290987667
 H          6.7679611956        2.0176056627       -1.0341824846
 H          8.5292164697        2.0993857036        0.5371894609
 H          9.0762011634        1.5017210537       -1.0562128957
 H          9.9590910881        1.0445660295        0.4209899249
 H          7.2031650777       -4.0119509825        1.2870927464
 H          5.5661604349       -3.3431343774        1.4900429348
 H          6.1182283110       -3.8949378195       -0.1194960288
 H          4.4314360838       -2.2543421110       -0.2677834661
 H         -0.2991258560       -1.5098546396       -1.8072686103
 H         -1.0768176983       -1.2738531133       -0.2275998961
 H          0.5041492025       -2.0618522945       -0.3303865990
 H         -4.7932859916        2.8219379034        0.1239733197
 H         -3.9563192448        2.6616408650        3.0440427638
 H         -5.0303846890        1.5161575243        2.2291499637
 H         -5.5222210370        3.1954648101        2.4339382259
 H         -2.7911170055        4.5161256855        1.6698106298
 H         -3.2681073080        4.7423734314       -0.0224940307
 H         -4.4340190239        5.0009836677        1.2642924858
 H         -0.8522135916        2.6079677594        3.1057107220
