25
 energy: 55.680555409344 xtb: 6.6.1 (8d0f1dd)
C            3.03863308216050        1.21813097030258        0.09763918971639
N            2.20448293494037        0.04755558529720        0.00955767096639
C            2.61091490388431       -1.25408068006090        0.14859854710337
N            1.47715178617744       -2.05341289192274        0.01767195514403
C            0.38100512113963       -1.23365127002316       -0.01801066862970
C            0.82138835933152        0.06604654375006       -0.01159935059809
C           -0.08172757950027        1.18618151281542       -0.07893805209581
O            0.37980489083077        2.31954657312668       -0.18442503166192
N           -1.41774409637006        0.88965936482098       -0.02732443508384
C           -2.13631829228975        2.90064670255840        0.02063523295042
C           -1.90214436764446       -0.38948900657151       -0.02665535702522
O           -3.06676436404820       -0.71295744314205       -0.03338811498239
N           -0.92970934013082       -1.51248756377660       -0.04345861513475
C           -1.33223832907350       -2.89494330226419       -0.06430463243649
H            3.26611701021082        1.45477149508708        1.13792900772786
H            3.97345311866276        1.04697694068270       -0.41060666761576
H            2.43418211431708        2.03557703583491       -0.32227365707963
H            3.58736787729516       -1.56027142281904       -0.14564605074411
H           -1.19367029004778        3.39453850474657        0.09132584976172
H           -2.63423656901306        2.93639471410747       -0.91379841377272
H           -2.71299541736388        2.89199269672471        0.90203864922079
H           -0.92743170371028       -3.39621140506269        0.82192061545269
H           -0.89986217403428       -3.37668142999467       -0.94623856385001
H           -2.42914224664981       -2.89972621019277       -0.08051890850471
H            1.51347998936469       -3.05925033227406       -0.00395911355605
