25
 energy: 55.325448827347 xtb: 6.6.1 (8d0f1dd)
C            2.96978963666962        1.18308802691770        0.06885741297344
N            2.20630806053327       -0.03669848520428        0.02564505852721
C            2.67018373069807       -1.28062028464365       -0.02092726284074
N            1.62398995324290       -2.14689960635734       -0.02357678815051
C            0.46119190653022       -1.40727070846055       -0.01178883131935
C            0.83558130059646       -0.07181944093585        0.02453984572509
C           -0.20623125769219        1.00165017460784       -0.04672449255481
O            0.10560747935901        2.18531078145719       -0.06936341744981
N           -1.44925304771250        0.51137382560644       -0.08006072101233
C           -2.33903330686220        3.90283141129787        0.03584780788473
C           -1.85079780016798       -0.73478076469088       -0.05170381800486
O           -2.98548097243045       -1.14133849171245       -0.04778628510638
N           -0.79641663038228       -1.82183582448304       -0.03935079584000
C           -1.18982289261073       -3.20836243872348       -0.06855376212339
H            3.17505508456410        1.46260410587481        1.11213847981007
H            3.90139987426964        1.06838004691672       -0.50373800883204
H            2.35812408757934        1.96256504209336       -0.39303588364326
H            3.69877259916863       -1.57851057475718        0.08824676549541
H           -1.30155938015570        4.13496414854849        0.10101255938440
H           -2.80345275027798        3.89183062511304       -0.92278000815323
H           -2.92287565649382        3.80981443305029        0.92030274700274
H           -0.84563403567469       -3.73826793395432        0.82414948712776
H           -0.81017631034349       -3.71351059681956       -0.96090841441556
H           -2.28418576310334       -3.19093823092275       -0.09135428606896
H            1.70553055621002       -3.15049575661868        0.00474439284824
