25
 energy: 54.930573580386 xtb: 6.6.1 (8d0f1dd)
C            2.97639574476863        1.18562851677987        0.06863237648511
N            2.21041191443384       -0.03137551549679        0.02138448491875
C            2.66911415760338       -1.27743707849486       -0.02399849433765
N            1.62088884748163       -2.14017161753876       -0.02492188661431
C            0.46170921504557       -1.40039286402030       -0.01508145600947
C            0.83800143420518       -0.06284525457108        0.01121062260393
C           -0.19837609689192        1.00667060493659       -0.04785392936174
O            0.10686843506823        2.19442584416990       -0.04221859357627
N           -1.45025448827759        0.53058360732864       -0.09812011815457
C           -2.35728768525613        3.98366951935410        0.03183978851313
C           -1.85070417699747       -0.71718244454556       -0.06150726998040
O           -2.98021442092400       -1.14122483179270       -0.05482727612176
N           -0.80072764833186       -1.80183968882544       -0.03895102417392
C           -1.18948700882530       -3.19264104889747       -0.06475235921564
H            3.21438445005366        1.44283557432039        1.11882131242373
H            3.89804507470799        1.07973207793139       -0.52349857179419
H            2.34088500086551        1.97342198040057       -0.36044530057959
H            3.69660188650552       -1.57772967252867        0.08845156011155
H           -1.30223044192838        4.09863040380382        0.07272784725298
H           -2.81604468379341        3.85505667230108       -0.92157312271657
H           -2.91066295409358        3.80126496903673        0.92247696946607
H           -0.84306369760395       -3.71509397538210        0.83019315921814
H           -0.80803721849968       -3.69821808115221       -0.95598593448445
H           -2.27703721300024       -3.21463064589623       -0.08849074654097
H            1.68716362929994       -3.14232670606054       -0.00587508718660
