25
 energy: 56.225924367333 xtb: 6.6.1 (8d0f1dd)
C            2.97687532192368        1.21227038621359        0.07622823029545
N            2.20366793423879       -0.00618549283334        0.04240419674254
C            2.65849500950013       -1.26321455198831        0.06873641923722
N            1.58942391935339       -2.11318065370505       -0.00387614540926
C            0.44225483330284       -1.35478148910149       -0.01934338578423
C            0.83945142716671       -0.03305368848461        0.02538724475405
C           -0.17850023059367        1.05526894417870       -0.06602758050696
O            0.19813630751217        2.21018074496281       -0.18595469073446
N           -1.42972571764386        0.62720112843333       -0.04178953508588
C           -2.27334294255180        3.56946440456454        0.04167049574785
C           -1.85655137302074       -0.61480043124173       -0.03517642872175
O           -3.00077948529710       -0.98681066583045       -0.03716279329937
N           -0.83083008326258       -1.72497619078359       -0.04575604562626
C           -1.24750825028267       -3.10075305441985       -0.07339890927583
H            3.03702475484678        1.60870201201415        1.09143270280237
H            3.95669761242129        1.03899122143165       -0.35508728244391
H            2.45450379971586        1.95591528046887       -0.52210491723400
H            3.68227266013360       -1.55230104077143       -0.07489091618805
H           -1.25938557486664        3.88064033335902        0.13570792239270
H           -2.73501811340615        3.52768450221231       -0.91754879263815
H           -2.89065155279864        3.44870034602387        0.90548483849143
H           -0.89616946893130       -3.62151173328772        0.82149597744079
H           -0.85957371937621       -3.59764840591612       -0.96609747950001
H           -2.34689635388389       -3.09093308530523       -0.09878288680151
H            1.65284493924974       -3.12043045196286        0.01597469753246
