25
 energy: 54.515233737236 xtb: 6.6.1 (8d0f1dd)
C            2.96778448826642        1.19210981287969        0.07010213467374
N            2.20242075431389       -0.02412247899121        0.02576139525703
C            2.66498688775297       -1.26791616793213       -0.00230990023971
N            1.61843886761681       -2.13289606580068       -0.01764403783478
C            0.45873430271727       -1.39577031738888       -0.00556204605267
C            0.83410457542382       -0.06161137113361        0.01829694981974
C           -0.20175593690078        1.00047925709836       -0.03245955771462
O            0.10835229912022        2.18590822179139       -0.04402525029206
N           -1.45022643297917        0.52787328098367       -0.07564048277894
C           -2.35903704163270        3.97075207761208        0.02417096574760
C           -1.85319450200636       -0.71745835070778       -0.05558630611382
O           -2.98879402416803       -1.11933847088704       -0.06164913969286
N           -0.80409681924395       -1.79763764382439       -0.03857275773144
C           -1.19834326801878       -3.18007196210921       -0.06229522544426
H            3.21808082790033        1.44231952740335        1.11382695346487
H            3.88956363011780        1.08735575963386       -0.51018417045263
H            2.33254945251938        1.98692734805808       -0.34201031350994
H            3.69442576291867       -1.55563634106471        0.05541588326953
H           -1.29959859602432        4.02933005629843        0.04343573490134
H           -2.82663625057029        3.79317200007034       -0.91976232471570
H           -2.87737732543987        3.72525468282689        0.92369556002236
H           -0.84661143956472       -3.69467394880827        0.83376826811850
H           -0.81464587654914       -3.67528683460279       -0.95630136634302
H           -2.28470154035365       -3.20670617897872       -0.08315680424354
H            1.68534874111228       -3.13722213383120       -0.01595823991583
