25
 energy: 1.487249129086 xtb: 6.6.1 (8d0f1dd)
C            3.15039685686539        1.21149676129008        0.09609265369502
N            2.26081546055432        0.09314118386393        0.01320649351445
C            2.58476079018111       -1.25400047149026        0.05205231300184
N            1.41334496042682       -1.98641180244720       -0.00007952938993
C            0.37445492666075       -1.12418750504135       -0.01917723239922
C            0.86608770430280        0.17086602788185       -0.00484776726913
C            0.04142396493620        1.30424659964647       -0.02667409813879
O            0.44508641113614        2.47241436669282       -0.04682344586582
N           -1.37525433471268        1.03500352095890       -0.03274649018451
C           -2.14080387832234        2.33761860035059       -0.02607375158816
C           -1.89494525015496       -0.24546026371414       -0.04972060387306
O           -3.07839648019721       -0.50160861639266       -0.06928000312449
N           -0.96956930646244       -1.35838899183361       -0.04472738412893
C           -1.42095968653523       -2.73203763423947       -0.06180340998955
H            3.55845420480587        1.34196088542818        1.10214432855448
H            3.96788175543417        1.11080399886120       -0.59962163441421
H            2.55918336052704        2.09371830695639       -0.16119735236109
H            3.58613800779308       -1.61073801480122       -0.03102483555084
H           -1.39198797967328        3.12514650108596        0.00443616563738
H           -2.75725273381340        2.43249830963657       -0.92702608968315
H           -2.80732828052465        2.40154244973803        0.83602091984614
H           -1.07159541451029       -3.26918310351970        0.82649795071347
H           -1.04492112949093       -3.25265460764685       -0.94840016600148
H           -2.51058443557430       -2.70040401990621       -0.07862080421835
H            1.39201926562228       -2.99715908488186       -0.00226426048898
