25
 energy: 55.350541235351 xtb: 6.6.1 (8d0f1dd)
C            2.97259979400843        1.19678937366124        0.07526251252569
N            2.20281009010551       -0.02148256957718        0.04109133152582
C            2.66225532272762       -1.27093397819505        0.02467027948830
N            1.60475064898048       -2.13097814670569       -0.01194080935508
C            0.44787872118239       -1.37960484934898       -0.00646076811916
C            0.83545835293232       -0.05234545086365        0.04654443104855
C           -0.20494651001142        1.02697467573543       -0.04738168839691
O            0.13362606403061        2.19340693908392       -0.15352219011787
N           -1.44729878043193        0.56425377830256       -0.05262068829079
C           -2.30365619557198        3.73373262624549        0.04537283662514
C           -1.86103380304426       -0.67792622343860       -0.03892009031177
O           -3.00034302325856       -1.06644089028282       -0.03703004949408
N           -0.81684381664046       -1.77484005915378       -0.04135105193558
C           -1.21698129469100       -3.15465057448213       -0.07353702359174
H            3.10512358458907        1.53060638817381        1.10347297711359
H            3.92647996510338        1.05313312139892       -0.42674959717373
H            2.41267970999336        1.97016769887455       -0.44842949229763
H            3.69281039448444       -1.55918332712571        0.00934492850731
H           -1.28076269182183        4.02610030276431        0.13995855764388
H           -2.76641492925078        3.70212261868509       -0.91697571946316
H           -2.91756138360558        3.61698278592004        0.91329424110412
H           -0.87643379372475       -3.68437454257209        0.82122549005823
H           -0.83879852402302       -3.65871662545470       -0.96774374053172
H           -2.31278617217817       -3.13007640317530       -0.09531987442785
H            1.68836346480120       -3.13773419804434        0.00913982692129
