25
 energy: 22.028697239806 xtb: 6.6.1 (8d0f1dd)
C            3.27698671352289        1.33475979024301        0.12576072067507
N            2.43175845227222        0.13601136565381        0.01487171645159
C            2.76105504877846       -1.23171324263533        0.03104009156832
N            1.58820199485301       -1.96019236774276        0.01163276695822
C            0.48929070276687       -1.16889305555193       -0.02039170358133
C            1.01282905754757        0.15718209874590       -0.01471533401759
C            0.19202932191198        1.30150093816678       -0.06006210951652
O            0.49372805972729        2.50225706778708       -0.08160596613159
N           -1.18215101816890        0.93553454478979       -0.06181426142493
C           -2.15857659884991        2.00871923159851       -0.04976212262828
C           -1.72014079004781       -0.28901986409112       -0.06973348838829
O           -2.94320470807293       -0.35411457627429       -0.08182327814728
N           -0.91703837251892       -1.46947607376900       -0.05777732532772
C           -1.93306201295468       -2.61104119498785       -0.06535302455297
H            3.90365072406302        1.35887751971587        1.03085475314997
H            3.97633225620010        1.48433979168674       -0.71857613902694
H            2.61354746789585        2.22001265216576        0.18068114632278
H            3.73230029145160       -1.69066378714090        0.06963526764118
H           -1.55492900365832        2.92397490889502       -0.02842758962438
H           -2.79031756762126        1.91774133194333       -0.93730264084804
H           -2.80222864904476        1.88698324268071        0.82649759125415
H           -1.93173552147483       -3.22401969227774        0.82929419477325
H           -1.91340559597313       -3.21047037764582       -0.97000784635440
H           -2.87097310231996       -2.07977856556746       -0.06981888128738
H            1.53905330700637       -2.96403724815219        0.03187061568422
