25
 energy: 39.557773878667 xtb: 6.6.1 (8d0f1dd)
C            3.52126649699137        1.70310840639471        0.10978352576925
N            2.77455339912447        0.46367291721468        0.05099754337584
C            3.22157541209104       -0.78626634410937        0.07809531031458
N            2.18973622604111       -1.66265554936002        0.03753157786139
C            1.00725516427899       -0.94098484993126       -0.01612637758945
C            1.40981610180076        0.40622389542488       -0.01320505220263
C            0.41978392159130        1.44422973889448       -0.05317381818589
O            0.66120035525668        2.64299572340247       -0.06407728708656
N           -0.84046326622669        0.89727782507659       -0.07998321356574
C           -1.97976059417184        1.78982535203984       -0.06115669127121
C           -1.20890998409040       -0.48155543039128       -0.05415916349431
O           -2.39881981740795       -0.70479369375058       -0.03675253848882
N           -0.21545749546984       -1.41232990918763       -0.04287560378385
C           -3.94091764283528       -3.60383978784265       -0.11973930073221
H            4.28366961840432        1.67057581635535        0.88158856726816
H            4.01986551138307        1.91420723810437       -0.83241597427290
H            2.84412651512177        2.53922036300561        0.29089302513800
H            4.24848945958133       -1.08302499717308        0.12993385112763
H           -1.58781080641750        2.80096380133854       -0.04983005023263
H           -2.59195750557665        1.61671027200690       -0.94585363868341
H           -2.59286455075542        1.55891980634625        0.81485895170451
H           -4.15345986422191       -4.08114937928587        0.80489735496240
H           -4.13603031558731       -4.11503525337868       -1.02962901897712
H           -3.73671134534651       -2.56677729758888       -0.13060858269309
H            2.26356785621889       -2.67328490233249        0.10077126989556
