25
 energy: 55.141044373610 xtb: 6.6.1 (8d0f1dd)
C            3.31202553075649        1.58371083916554        0.17269594455642
N            2.61670208658671        0.29903098076360        0.01494537040519
C            3.02552046017155       -0.97841225364875        0.05747230459409
N            1.96823713848258       -1.84422215461401        0.02937953929515
C            0.79353836925169       -1.10582394169976       -0.05355673923205
C            1.25394538681638        0.22743933140309       -0.09135307172364
C            0.34388062698665        1.32312868625250       -0.17047233490675
O            0.67496813173703        2.49800179284452       -0.25418441847864
N           -0.95191604902868        0.88771104682499       -0.12341038962422
C           -2.05609892979111        1.84101015964289       -0.05225075853851
C           -1.39886349899004       -0.45186653063303       -0.07070807220250
O           -2.61153990113890       -0.48466868256403       -0.01150754479426
N           -0.48056835808128       -1.49824596599553       -0.06700139103955
C           -3.27232780808369       -3.09617839224684       -0.08883636769306
H            4.20937194062828        1.47370856848562        0.77212659270856
H            3.54022026949710        2.07654744385059       -0.77527815089375
H            2.68836869764382        2.31119719777639        0.69063994184317
H            4.02864266430263       -1.33418721647939        0.15193200605235
H           -1.68402124335305        2.86529595928630       -0.01571930982764
H           -2.71235348255922        1.68040210407152       -0.90993210752209
H           -2.67254554669137        1.61323115196840        0.82750090434861
H           -3.25258087327280       -3.60197914799378        0.83320553161154
H           -3.21510722438661       -3.64048454746884       -0.98494781177310
H           -3.52324126047822       -2.06556453712312       -0.11141113436205
H            2.00713295812846       -2.86299492925338        0.09110191382688
