25
 energy: 65.915205828363 xtb: 6.6.1 (8d0f1dd)
C            3.26064863541703        1.43168797759225        0.15970068510342
N            2.50281442917523        0.16825511638976        0.03287904743322
C            2.86645630180609       -1.14817457733622        0.03621266042474
N            1.73676486073413       -1.93949028662070        0.01070069351065
C            0.59568623704886       -1.16168003777846       -0.04571713731396
C            1.11500183261982        0.15520523042174       -0.05759309384406
C            0.26171942647745        1.30835541235127       -0.09133351426999
O            0.60227577115080        2.49005634248228       -0.10319707086339
N           -1.06416387432585        0.93030320488701       -0.08053062849559
C           -2.12114476050795        1.92888782863482       -0.04994540834288
C           -1.57496264207179       -0.35549073919897       -0.08499381081030
O           -2.80435692628737       -0.31214232352030       -0.08415543665846
N           -0.73178784081373       -1.47715838110003       -0.08224733987665
C           -2.56228997732880       -2.83929192397003       -0.06473234834369
H            3.97362492192984        1.45460911381571        0.99019185474310
H            3.81137146234933        1.70170957450870       -0.75136230314150
H            2.54558663130693        2.24684364963031        0.38352838219806
H            3.85724568910516       -1.56529840962700        0.08549125861058
H           -1.55219275300519        2.85884897175470       -0.02593891272787
H           -2.76891431113659        1.79837840214725       -0.92602723884795
H           -2.76626399406240        1.75205839458991        0.82192106265708
H           -2.45605032192475       -3.32640723398388        0.86065838661309
H           -2.43466469086532       -3.31846786554661       -0.99086988623793
H           -3.06100619733736       -1.91149408224407       -0.06010571530490
H            1.71762541430542       -2.95136531756988        0.03400093585042
