72
 energy: 44.951130660131 xtb: 6.6.1 (8d0f1dd)
N           -1.33621654682331        3.24550810441591        1.94003841544861
C           -2.20509561489461        2.66005768647949        1.36379920605533
C           -3.35415949213069        2.35352689748423        0.84081614547911
C           -3.68016089479615        0.96076194733058        0.65741540594434
C           -4.61401944235888        0.52255983626154       -0.27440416366584
C           -4.92083243262566       -0.81168011669032       -0.40716644467746
O           -5.80048795989500       -1.30549458201811       -1.32361535866125
C           -6.46674112744707       -0.40357405537701       -2.15826022985590
C           -4.25531505040061       -1.76370520020160        0.39424743627003
O           -4.58851702461439       -3.07119835177501        0.14856336052461
C           -4.06602055715231       -4.07514162710305        0.97982375329939
C           -3.35772360921838       -1.33146525561394        1.35237775431041
C           -3.06408056765090        0.01418843209886        1.47721305279797
C           -1.56547305184000        1.82211808026599       -2.04935991282395
C           -0.56590015100183        0.80630077538367       -1.82406411769477
C           -0.16802838685775        0.65903022626096       -0.32412900656610
N            0.61598696629875       -0.48449239326611       -0.03497148837815
C            2.04644422335834       -0.37801675569007        0.10584731786468
C            2.89613394889858       -0.69243331124074       -1.13992056981810
C            4.34716949650908       -0.54078154592631       -0.78921676378934
C            5.01664356902385        0.64870274716920       -0.99957710135019
C            6.34882311336931        0.78585838550842       -0.63984362380471
C            7.03596330988076       -0.26594454216678       -0.06482941889207
O            8.34213561080561       -0.24050687695803        0.33082918690643
C            9.09616894640606        0.92299083463477        0.10747009283826
C            6.36156130766248       -1.48269389384681        0.17236951171250
O            7.10206974377660       -2.45744647145275        0.76927118206255
C            6.48848520276979       -3.69446854416066        1.02811665315062
C            5.03449201858513       -1.59452533169798       -0.19477845236065
C            0.08219838959258       -1.74984113701778       -0.43249445338167
C           -4.37744548105144        3.42595061005709        0.71063261380673
C           -5.25537143255878        3.28426345552073        1.92674398815726
C           -3.80453489583942        4.82537304782152        0.64790223925389
H           -5.07682565936865        1.24886743483953       -0.91340145059700
H           -7.08065820504692        0.29600741592665       -1.58205339294296
H           -7.10700655654068       -1.00287444865842       -2.79758236870276
H           -5.76386402169815        0.15044564655322       -2.78574982266024
H           -4.30500375988850       -3.91970968552162        2.03515345865786
H           -4.51222755178391       -5.00961614218544        0.64399127687061
H           -2.98229798058185       -4.14427917699881        0.87078768486704
H           -2.85921711084738       -2.03699233458083        1.99991200421187
H           -2.36093178704600        0.31289277571580        2.24080229487386
H           -2.61198149832364        1.60328709151469       -2.20657034580790
H           -1.25576955705350        2.82568103933223       -2.19941479338091
H           -0.93491782550208       -0.14033494933387       -2.21540094723375
H            0.31426449869785        1.16662933571856       -2.33784768981710
H           -1.16990543822227        0.75814564178728        0.23931195902284
H            0.45865261059123        1.52126154417261       -0.05707964329532
H            2.36350530753618       -1.06133107038164        0.90431297142788
H            2.28068975944554        0.63754528904255        0.43076528318553
H            2.62644274877454       -0.00315242284065       -1.93987645655357
H            2.69969123839778       -1.71176150233700       -1.47424663076041
H            4.51195571628044        1.48632256088910       -1.45582053122341
H            6.84445021144207        1.72858849274668       -0.81415269891958
H            8.69812643454123        1.78502843307564        0.65543388027996
H            9.14411598475953        1.16014221513988       -0.95866840824475
H           10.09836831780448        0.70431095764964        0.47569266018162
H            7.26000766979278       -4.31550310367527        1.48109654670098
H            5.64575704422498       -3.60310759413991        1.72331045101633
H            6.14432930672268       -4.16573527892790        0.10162642475480
H            4.49568120702415       -2.51182703567692       -0.02297205658766
H            0.15469597030638       -1.99063638223634       -1.50363688820845
H           -0.96767012671587       -1.76905219534495       -0.14962301080741
H            0.61407536837398       -2.51730511251674        0.12110884603837
H           -4.99636609338505        3.25563802927696       -0.17241763628100
H           -4.67178504619236        3.50057749520841        2.82076802006841
H           -5.65147675325912        2.27446275102639        2.01931816336775
H           -6.05346754091595        3.99620546295811        1.80455249808445
H           -3.22760302541651        5.03625588851124        1.54022412046572
H           -3.14322462847187        4.97931274328808       -0.18273191816589
H           -4.63366485739097        5.50399382310204        0.56822336305629
H           -0.73610951535622        3.18862334495295        2.73415841245822
