72
 energy: 26.094685603722 xtb: 6.6.1 (8d0f1dd)
N           -1.22671164009265        3.20756765891433        1.89437763105118
C           -2.31320668288936        2.74940435739179        1.61056306660482
C           -3.49269209645529        2.39256076345524        1.17837652253945
C           -3.79061279700991        0.99356049774815        0.86067124246924
C           -4.69612675235673        0.58533856968702       -0.12690902493844
C           -4.89803450927876       -0.75861634689622       -0.37288044207729
O           -5.73997899027238       -1.25346961085338       -1.32432074568382
C           -6.47746764178927       -0.34819107340970       -2.10696619710547
C           -4.20162369715887       -1.73358063566105        0.37894995316962
O           -4.46744436027612       -3.03551808902913        0.06468194552881
C           -3.84832831211749       -4.05399234951861        0.81157445557545
C           -3.30777794503051       -1.32347609303246        1.35137527763999
C           -3.11078548543561        0.02410897773162        1.58680519955435
C           -1.28309573759435        1.77019878848709       -2.44365226981824
C           -0.31208307121174        0.76459156893223       -2.00066369050766
C           -0.22900599840430        0.57617563184771       -0.44085577318535
N            0.55321671629605       -0.53909938736419        0.02125166473749
C            1.99107316529998       -0.40493230939233        0.15228362197921
C            2.86329736105767       -0.70131120394513       -1.09108574165463
C            4.31948409755023       -0.54732812859186       -0.75108039239048
C            4.98581935630981        0.64293758546940       -0.97138567475937
C            6.32730231481403        0.78501713793234       -0.63923883660998
C            7.02700357563565       -0.26535726391676       -0.07685121668116
O            8.34112762318518       -0.24502395854159        0.27862515088847
C            9.09343546949666        0.91511715561720        0.03104936360003
C            6.35753010777631       -1.48819433580616        0.15841243709426
O            7.12456005493656       -2.46561277427423        0.71595914814423
C            6.54596523770141       -3.71841219490200        0.97709623099115
C            5.02412701190416       -1.61139679916617       -0.18361967279744
C            0.11191677262227       -1.85684844371088       -0.37288276274619
C           -4.52003807854966        3.47570856686324        0.90612936980584
C           -5.51256198668931        3.43738482331181        2.04417074745917
C           -3.93268074085032        4.87280852130110        0.74348898903262
H           -5.21814352364052        1.31369578334735       -0.73006527147969
H           -7.15487125631611        0.26415123279495       -1.49983778206949
H           -7.06262993746741       -0.95979936395051       -2.79145268124599
H           -5.81421310611923        0.30187209152528       -2.68661958785708
H           -4.09595089211080       -3.99061279722125        1.87349615684386
H           -4.22846476283759       -4.99321539951292        0.40798323930267
H           -2.75695750094051       -4.03460947525134        0.70097034818583
H           -2.77412625719690       -2.03912463990606        1.95415960620176
H           -2.42174888989025        0.33822503343054        2.35452815754195
H           -2.33232944596523        1.55309935888484       -2.33787961723112
H           -0.98573163427214        2.80045734857423       -2.54904401053513
H           -0.58572519891325       -0.21712311324741       -2.39665697067740
H            0.70111080867233        1.02297445902995       -2.30572487575987
H           -1.25077803743822        0.45624393525675       -0.07535957214867
H            0.21150777041109        1.48066563677477       -0.02178458160185
H            2.31103720694175       -1.08937270028474        0.94756508635560
H            2.20686271909825        0.61103045700574        0.48850927237322
H            2.60197944232806       -0.01192250442327       -1.89430965227104
H            2.67643669267242       -1.72168996628421       -1.42940675939918
H            4.46556080273761        1.47785124926159       -1.41450183938775
H            6.81758940493031        1.72787230001885       -0.82974876545495
H            8.71544693394858        1.77411261580919        0.59617620665382
H            9.11778663645920        1.16632134481386       -1.03438753695322
H           10.10486059584875        0.68659201276983        0.36812010267482
H            7.34030729206407       -4.32585348516082        1.41017007590666
H            5.72162944051155       -3.64399615402294        1.69511109395868
H            6.18814199577456       -4.19797399641676        0.05902997861947
H            4.51225999302111       -2.54770775651622       -0.02026019061806
H            0.30010211643907       -2.10418345650770       -1.42543466047894
H           -0.95776918781421       -1.92755153451977       -0.18889778676906
H            0.62903406472736       -2.59421114228109        0.24475380477856
H           -5.06212354317764        3.22782585052481       -0.00464112047558
H           -4.99702568171514        3.69347649390291        2.96017824676627
H           -5.92712293755317        2.43849376991863        2.13522329330538
H           -6.31288456364504        4.14594596099889        1.85582115364198
H           -3.42792674190310        5.18246522016533        1.64873354424712
H           -3.20558879685145        4.89866974582581       -0.06217620017353
H           -4.73170903323400        5.58204508626486        0.52501442319777
H           -0.87351724667937        3.27836219365203        2.84412798155974
