72
 energy: 52.421360985076 xtb: 6.6.1 (8d0f1dd)
N           -1.40261524747870        3.21917511374219        2.01348176363734
C           -2.18432965628103        2.61246471174705        1.34354751044849
C           -3.32702995064339        2.34205808600393        0.78351928302702
C           -3.65711440264293        0.94565782357223        0.63056105288755
C           -4.59425664284395        0.50611346341061       -0.29725727304168
C           -4.91587668809924       -0.82508088104171       -0.41663382479916
O           -5.80500324504441       -1.31810129498718       -1.32277480634104
C           -6.46252789019847       -0.41613171832982       -2.16553372007963
C           -4.26152466385787       -1.77597778102297        0.39400248840657
O           -4.61311283090093       -3.08060622111292        0.16506708344060
C           -4.10157671120285       -4.08036114924339        1.00774876094151
C           -3.36096217514100       -1.34374427889116        1.34898320559030
C           -3.05269586521305       -0.00035539925549        1.46108758480689
C           -1.60828079830500        1.83858658823289       -1.98088070763498
C           -0.60751607984490        0.81567220569948       -1.80143065531758
C           -0.15525944285511        0.66880219717769       -0.32149615859396
N            0.62883215432147       -0.47285532366986       -0.06090918481035
C            2.05261763765942       -0.36237976655601        0.08910499417385
C            2.90403338172938       -0.68767728608714       -1.15098824842278
C            4.35306326662987       -0.53702996888296       -0.79677949990849
C            5.02316850754252        0.65190170105150       -1.00393364984874
C            6.35400342117732        0.78770317401054       -0.63825615703493
C            7.03875240623164       -0.26375317143793       -0.05816277406213
O            8.34235008855740       -0.23835337443572        0.34457528069025
C            9.09580807873147        0.92482315052109        0.12081594742498
C            6.36001132293607       -1.47845724928878        0.18013988840920
O            7.09534637286532       -2.45388714623765        0.78267196973720
C            6.47735359703194       -3.68942731774963        1.03610494450254
C            5.03493664969593       -1.58957623051384       -0.19521834483756
C            0.07553390742808       -1.72994572043401       -0.44390244793043
C           -4.35220962064221        3.41357716332956        0.68050063610444
C           -5.20604513846876        3.25342995220923        1.91655023580798
C           -3.77967677773986        4.81170198308839        0.63402262054674
H           -5.05046233577434        1.23180027142064       -0.94154764465062
H           -7.06478095011269        0.29805883127602       -1.59498568689462
H           -7.11586541883703       -1.01255382862761       -2.79433717624420
H           -5.75632762213929        0.12309493168302       -2.80233451049660
H           -4.33933313045916       -3.90587198792137        2.06059791972104
H           -4.55937812213406       -5.01297061494105        0.68370697263471
H           -3.01775478622016       -4.16639961905226        0.90213299766001
H           -2.87245380631448       -2.04677586793317        2.00590460180575
H           -2.34866266292240        0.29451561237662        2.22540552739267
H           -2.64955310908033        1.63935097057386       -2.18390057943393
H           -1.28956468668864        2.84008832948040       -2.13576007220242
H           -0.99297923355559       -0.12634075435729       -2.18151094154003
H            0.24105326907342        1.18452772977575       -2.36579865685079
H           -1.17171431723096        0.80321746392731        0.28192061069585
H            0.48457084400218        1.53637730863447       -0.10019617012801
H            2.36251841037717       -1.03679627825012        0.89550060235788
H            2.28403524835020        0.65542500505336        0.40774397333027
H            2.63761928898690       -0.00212008633690       -1.95394709772923
H            2.70109814960018       -1.70666024497219       -1.48040146343956
H            4.51954021341473        1.48898061371037       -1.46240915057074
H            6.84897605690562        1.73076267038142       -0.81137718190718
H            8.69380569038785        1.78734039934845        0.66503798776222
H            9.14721625986694        1.16013880683693       -0.94572082449757
H           10.09697236254503        0.70821172947296        0.49340412642258
H            7.24503132316596       -4.31289389328542        1.49220820563948
H            5.63133227329303       -3.59596724158982        1.72676175402735
H            6.13596473326314       -4.15933382878273        0.10778328297551
H            4.49210673618958       -2.50468282639678       -0.02454651978505
H            0.12838958432842       -1.97909514627027       -1.51496960918178
H           -0.96972237225497       -1.73650589367266       -0.14362280240195
H            0.60915445662415       -2.49389251226900        0.11012133165154
H           -4.98184212682951        3.25074106630376       -0.19692687378188
H           -4.61002899401754        3.46357876765816        2.80361124769579
H           -5.60009074327208        2.24294987082632        2.00864442529111
H           -6.00769412169580        3.96431008830703        1.81982638289235
H           -3.18863594169342        5.01143141645436        1.51895038867532
H           -3.13422236711208        4.98469705764090       -0.20597724342385
H           -4.61142025286741        5.48915570279874        0.58478336703556
H           -0.69482153689961        3.17267956510939        2.70027831684770
