72
 energy: 24.318890546611 xtb: 6.6.1 (8d0f1dd)
N           -1.22793649025949        3.17403559088890        1.92115132572872
C           -2.33950929565071        2.76861818720112        1.64914881468070
C           -3.50595771360560        2.41803016947998        1.17137982032205
C           -3.78780545991027        1.00517165018151        0.88565093517992
C           -4.68727197009953        0.59419430388576       -0.10612631635566
C           -4.88943230513387       -0.74793116811730       -0.36556951342396
O           -5.72898633630748       -1.24203605899932       -1.31938995941909
C           -6.47073223813343       -0.34219305440229       -2.10301287644573
C           -4.19535086124206       -1.72597899071985        0.38199454865430
O           -4.46383197110518       -3.02537259522229        0.04875388219173
C           -3.83542778311520       -4.04304093665501        0.78757717780408
C           -3.30455378598624       -1.31698840608696        1.35903608810079
C           -3.10239864146393        0.03096122206894        1.60157300752226
C           -1.23767826622941        1.75218865143766       -2.46468104263659
C           -0.26884828970248        0.74504375187631       -2.03355576271943
C           -0.22358403030566        0.54802381929307       -0.47288884826780
N            0.56372108906407       -0.54906439512891       -0.00289059771588
C            1.98992070949776       -0.39555382432629        0.13774032227360
C            2.86916749502420       -0.69681485509113       -1.10182329906290
C            4.32299217448369       -0.54531110138944       -0.75791432998108
C            4.98771112208613        0.64700808723252       -0.97163986511450
C            6.32846605404906        0.78800849853086       -0.63674995007911
C            7.02589826198286       -0.26399901734979       -0.07352160724587
O            8.34515851106445       -0.24831242261450        0.27545057842829
C            9.09361094852895        0.91531097723973        0.03076039613729
C            6.35513514245358       -1.48567935749343        0.16141368615520
O            7.12669841914807       -2.46715110969491        0.71323856684029
C            6.54901088794719       -3.72100225380829        0.96921374417425
C            5.02204773024040       -1.60765809706387       -0.18304568487930
C            0.11199838216493       -1.86311151442959       -0.37809809868725
C           -4.55097694644439        3.48478190004886        0.92374588453691
C           -5.54446008049656        3.45077379955213        2.07259063875724
C           -3.95063497217614        4.87580194116549        0.76447835644631
H           -5.22022468173313        1.32513967606633       -0.69565305163678
H           -7.15003638420702        0.26499434389116       -1.49349452346999
H           -7.05544581380270       -0.96041919412468       -2.78225338569672
H           -5.81911087810293        0.31698432566791       -2.68151675949609
H           -4.09877434136466       -3.99477220471272        1.85006040344034
H           -4.20689942892601       -4.97793513308969        0.37322853923211
H           -2.74632093855137       -4.01408074905448        0.68289013531476
H           -2.76389916930071       -2.04023112903282        1.95033262567590
H           -2.40446646902680        0.33143041820218        2.36726862672270
H           -2.28203184254509        1.54157409677816       -2.32687922942504
H           -0.94197256982379        2.77875294230104       -2.59413460149183
H           -0.54786485757512       -0.23148684107251       -2.44392983095444
H            0.74311480035288        1.01026724639649       -2.34775372722526
H           -1.24805160285455        0.38081062628541       -0.13782632690222
H            0.16030950204573        1.46106123580351       -0.01829930723258
H            2.30966628877135       -1.07166877093327        0.94120154737557
H            2.19200966990170        0.62689241878119        0.46955527361587
H            2.60903171885920       -0.01085065376295       -1.90941122345071
H            2.67672233949152       -1.71755127403241       -1.43696099907415
H            4.46579357833446        1.48232739319153       -1.41358264596100
H            6.81940878375514        1.72941631815874       -0.82603572824166
H            8.71263421249497        1.77096042306720        0.59841903112762
H            9.11318216375319        1.16717911952703       -1.03533243614939
H           10.10538354465779        0.68634820618981        0.36216031961335
H            7.34604772997764       -4.32900952379856        1.39614481329856
H            5.72624676744052       -3.64963505324429        1.68910146729819
H            6.18631914890282       -4.19651085987404        0.05173482395760
H            4.50608135423244       -2.54164059890549       -0.01726327977267
H            0.29445932147132       -2.11912120267563       -1.43215133431215
H           -0.96003472147359       -1.93683992980583       -0.18258735485907
H            0.63361259220604       -2.60118060603136        0.23259767144129
H           -5.09018135488831        3.24782585877938        0.00229211125957
H           -5.03284888104501        3.71078447184482        2.99432644057140
H           -5.96352802711693        2.45244090292657        2.17200568571716
H           -6.34778599108952        4.16204032039216        1.88917510779860
H           -3.44678729417622        5.19706418839086        1.67025664794439
H           -3.23103978220560        4.89841137827719       -0.05114364603528
H           -4.74159824857636        5.59068460491738        0.55172733837159
H           -0.88408723521969        3.26231788184277        2.87023130696810
