72
 energy: 34.800352976921 xtb: 6.6.1 (8d0f1dd)
N           -1.27749357794355        3.26574465595319        1.87685078243943
C           -2.24932820462260        2.71037347067001        1.43917691951733
C           -3.40595389764488        2.36914650385262        0.95684754516916
C           -3.72583570206818        0.98085083056029        0.71813104533360
C           -4.64860898291302        0.55055621012288       -0.22908951500787
C           -4.91612259109724       -0.79040915595115       -0.39117466572947
O           -5.78500279061682       -1.28394583859399       -1.31791786889161
C           -6.47197589420811       -0.38133585628282       -2.13990895484309
C           -4.22721188524708       -1.75075569427493        0.38184416345631
O           -4.53691674705264       -3.05916281618983        0.11174329139119
C           -3.99269182769494       -4.07001699217960        0.92315633620125
C           -3.34066817137887       -1.31835260272204        1.35144805158002
C           -3.08836618959790        0.03130025130873        1.51030737886474
C           -1.47504240591194        1.79909768443327       -2.18659228590637
C           -0.48103038063734        0.79477495834366       -1.86576014316508
C           -0.19733653886381        0.63161777870203       -0.32918416218276
N            0.60338189588953       -0.51330609245235       -0.01006481788575
C            2.03613589983091       -0.41012373728975        0.14059224045124
C            2.88637208478241       -0.70592266581316       -1.11308447742524
C            4.33672199542725       -0.54726452400616       -0.77218500503027
C            5.00417889197413        0.64336856225517       -0.98926995767160
C            6.33990196568871        0.78487814317338       -0.64257409710353
C            7.03542460942238       -0.26842977626622       -0.07942497203069
O            8.34749682255858       -0.24530939501181        0.30186292548639
C            9.09715719415250        0.92149687660052        0.08023275146809
C            6.36428695424251       -1.48641618600225        0.15818371712086
O            7.11625117720658       -2.46434962816279        0.74325338930306
C            6.50896767660204       -3.70332225102054        1.01043598926857
C            5.03357262393176       -1.60353250235104       -0.19112145368393
C            0.09498758927581       -1.79064886975787       -0.40813796953244
C           -4.42603931553298        3.44776880155632        0.76963350257463
C           -5.34847741785039        3.34162606694732        1.95294401535758
C           -3.85273426274942        4.84984031532113        0.67496711149472
H           -5.12789655875348        1.27776308939825       -0.85678340482440
H           -7.10870566767977        0.28881809418578       -1.55388198355345
H           -7.09323608552498       -0.98144778992085       -2.79764752111094
H           -5.77836837619133        0.20301680758712       -2.75225286800889
H           -4.23791596886892       -3.94915332387885        1.98170429916043
H           -4.41686404693865       -5.00711027614133        0.56404534399971
H           -2.90665166607461       -4.10536339165835        0.81599023673385
H           -2.82805384102340       -2.02190449395257        1.98806752415006
H           -2.39019696602993        0.33972902928915        2.27439752623650
H           -2.52512933197842        1.54799314825151       -2.26268974301494
H           -1.18251415778265        2.81156156459554       -2.32875106121006
H           -0.81291484037978       -0.15910821422067       -2.27268592475710
H            0.45716660755792        1.11784818838001       -2.28570502339312
H           -1.18763385289309        0.65313197175919        0.16135359177960
H            0.38122221571270        1.48782717158002        0.02517133028928
H            2.35674048200047       -1.10703389772277        0.93081458036510
H            2.27088049443656        0.60198620622231        0.47705923398999
H            2.60791862236422       -0.01206812661338       -1.90770251264877
H            2.69514468796431       -1.72344533334351       -1.45879362513577
H            4.49498605746797        1.48049655974272       -1.44161618710828
H            6.83421386850513        1.72700812652769       -0.82069174642896
H            8.70307903826358        1.78025771873553        0.63597680519015
H            9.13582808159410        1.16402739937837       -0.98488993379672
H           10.10206525110970        0.69972173030213        0.43933554721060
H            7.28711312742856       -4.32005221207402        1.45788477384340
H            5.67271782178014       -3.61486847317393        1.71400038254575
H            6.15854741236972       -4.17750040609441        0.08769828225242
H            4.50407787047704       -2.52639321522656       -0.02180509831258
H            0.21065508534865       -2.02296986259681       -1.47806181244529
H           -0.96647158989702       -1.82732349602499       -0.16563877940831
H            0.62022973705975       -2.55183712094450        0.16395926268934
H           -5.02394351221066        3.25975507105948       -0.12321382329958
H           -4.78491930305676        3.57172223970572        2.85345173525340
H           -5.74929565328393        2.33422578123562        2.04154014790190
H           -6.14302648071359        4.05503923775896        1.79296967047796
H           -3.30125860782450        5.08415230077070        1.57683944537282
H           -3.16361613647854        4.96625102966371       -0.13933955905249
H           -4.67299655994021        5.53462982865418        0.53818940924622
H           -0.80770423866148        3.21199708827879        2.76554634557379
