72
 energy: 10.685471348230 xtb: 6.6.1 (8d0f1dd)
N           -1.57996874154384        3.02021804156476        2.18782249134877
C           -1.73094346969511        2.26630172113494        1.19423260862196
C           -2.87796525741751        2.18061915894706        0.24393962489487
C           -3.41560093627901        0.76094812885834        0.40676485027781
C           -4.39530551903103        0.33978159772062       -0.48794948025533
C           -4.87230791821008       -0.95301423170995       -0.49251941539406
O           -5.82103899820517       -1.42973842338062       -1.34681445029071
C           -6.41415849893280       -0.54122266436185       -2.25259427321788
C           -4.35649606855202       -1.88870247392204        0.42624297537185
O           -4.86365372376746       -3.15275397215751        0.31804966770691
C           -4.47657178752891       -4.10537521647733        1.27372347452319
C           -3.41220138703641       -1.47145947339369        1.34372785219775
C           -2.94629036715987       -0.16117324008548        1.33231005326292
C           -2.11110144333103        2.13252798253427       -1.29802774829085
C           -1.07828069651867        1.05718236779932       -1.67704943792322
C            0.01048565648275        0.99512300885926       -0.66371713835153
N            0.65756763924894       -0.19122509598955       -0.41486971722678
C            2.03820845156246       -0.15472580808466       -0.07907425757099
C            2.94509572559934       -0.59823472512346       -1.24639645517446
C            4.37625478769642       -0.47743471311132       -0.84686604276895
C            5.07220471523935        0.69901140264896       -1.03936026378158
C            6.38580351971218        0.82079148781430       -0.61326777955109
C            7.02311178974397       -0.23092641598988        0.02100154692248
O            8.31315039077289       -0.22471554482383        0.47139868715810
C            9.08284948601088        0.92771278979349        0.25440575499088
C            6.30946721217617       -1.42731159413399        0.24917041514783
O            7.00741719063597       -2.40895635335013        0.89051142757672
C            6.37065185055402       -3.63963953240968        1.11287903579735
C            4.99849878955579       -1.52727524288138       -0.17748976947146
C           -0.00825168610363       -1.44614793974524       -0.56543041027233
C           -4.01872562999878        3.18634298333679        0.55456713640178
C           -4.71048746137658        2.92088973681771        1.90970799168086
C           -3.52539123080006        4.62361133885955        0.56819737803056
H           -4.78207217883286        1.05158952314871       -1.19587573146631
H           -6.91595785997989        0.27918765701048       -1.72985318565979
H           -7.15204937268078       -1.12561183894840       -2.79906519183563
H           -5.68546469675948       -0.13330345183719       -2.96222224640615
H           -4.70556293937902       -3.78028957673775        2.29310052769767
H           -5.04446104603485       -5.00456335889242        1.04047519944746
H           -3.40773019766564       -4.32837228614290        1.20714919292544
H           -3.00379112243085       -2.16452947117352        2.06394932887199
H           -2.21261706556720        0.12090212851776        2.07166823717339
H           -2.92425273988604        2.13515956399533       -2.01897094528019
H           -1.56368462092145        3.06639352830006       -1.45637537516605
H           -1.55894661265513        0.09100412817405       -1.80840008709768
H           -0.62430852741137        1.35017744710093       -2.65580641669037
H           -1.01569985083682        1.46299100421015        0.86246508239302
H            0.69586944531466        1.82559810325516       -0.66905182678095
H            2.21807985284401       -0.79177338126025        0.78955039960946
H            2.29014982168422        0.86928594022573        0.20105849359118
H            2.72354482931516        0.04454483275052       -2.09985400332462
H            2.69705038547018       -1.62500920817632       -1.51164928542405
H            4.59278303764654        1.53389697703779       -1.52957644509143
H            6.89960482407517        1.75262889562023       -0.78504485860243
H            8.66295636986223        1.80131710359037        0.76586525079402
H            9.18272840530692        1.14921215206797       -0.81310975488636
H           10.06342533050796        0.70465220131127        0.67250820171796
H            7.11501933970889       -4.26879900094662        1.59875580719287
H            5.50093467958469       -3.53557126851957        1.77051935250019
H            6.05849588937859       -4.10977508199406        0.17338133516697
H            4.43536857552412       -2.43259337657365       -0.01355404662733
H           -0.11370510717013       -1.75307022940146       -1.61521650048395
H           -1.00485224814600       -1.40308176105199       -0.11840706772053
H            0.57501871677581       -2.19920248641607       -0.04442937735328
H           -4.77489807269931        3.06059304449994       -0.22005204388467
H           -4.02938226807493        3.08640651321971        2.74120875376468
H           -5.11113552001691        1.91151387182914        1.99043077143006
H           -5.53870303289124        3.62020088426838        2.02242595872067
H           -2.80005819945932        4.76514415550919        1.36325729636005
H           -3.07231854896070        4.89551517385566       -0.37393817673712
H           -4.36299863805646        5.28596959934434        0.74639508342999
H           -0.70639088469001        2.91572711855523        2.69168878045212
