72
 energy: 19.040840635516 xtb: 6.6.1 (8d0f1dd)
N           -1.59807357966381        3.05538694830489        2.17379866633693
C           -1.75362968206681        2.29829701505625        1.18015393811259
C           -2.91076690176129        2.20086503675276        0.25859106970077
C           -3.43709541740453        0.78277849779614        0.42437650872380
C           -4.41505559063846        0.35822536289399       -0.47007258042216
C           -4.87713559856514       -0.93932383925234       -0.48506800018255
O           -5.82158369827903       -1.41781323891714       -1.34305719747186
C           -6.41830822590486       -0.52779854891821       -2.24424395834878
C           -4.34699862612106       -1.87789347007514        0.42228009438445
O           -4.83742255418509       -3.14830255551826        0.30068104916970
C           -4.43844417462261       -4.10531560825839        1.24740945772862
C           -3.40877631903699       -1.45707467719950        1.34456619635934
C           -2.95777923769295       -0.14172133647881        1.34371375253888
C           -2.08361087101453        2.10243566708581       -1.33542212209119
C           -1.03903487464625        1.03020235810830       -1.67761138408574
C            0.00890593687570        0.96353568625581       -0.62204340124104
N            0.66085463419952       -0.22118947462448       -0.38202755920123
C            2.04443426816735       -0.17872697384054       -0.06171538420346
C            2.94505794561037       -0.60932894405968       -1.23841829723463
C            4.37776209132087       -0.48611725096544       -0.84637067451377
C            5.06960061837690        0.69289391345030       -1.03745649302796
C            6.38431998893343        0.81671789510309       -0.61575668281490
C            7.02724171392762       -0.23497045924637        0.01331698596020
O            8.31953952880148       -0.22705841378289        0.45899660250773
C            9.08518598596392        0.92768180249130        0.24125068010724
C            6.31663206323166       -1.43269729154829        0.24272734995282
O            7.01784746308357       -2.41408627704434        0.88154628303373
C            6.38126714045861       -3.64460206682128        1.10514359304260
C            5.00434012086304       -1.53435678086622       -0.17994595452806
C            0.00038215369982       -1.47552824013144       -0.55401630170085
C           -4.04914256294879        3.20884362887007        0.55267498301280
C           -4.75450920046832        2.95114542756148        1.90404823205541
C           -3.55126917090770        4.64335991829058        0.57185373492105
H           -4.80799586844007        1.07242094428917       -1.17188981412496
H           -6.92979612940418        0.28298734147413       -1.71592110192016
H           -7.14810522169646       -1.11361115526336       -2.79973481667661
H           -5.68998552402423       -0.10662412652171       -2.94670614869247
H           -4.66931436578218       -3.79311380759321        2.27028725474040
H           -4.99440299080971       -5.01021842932902        1.00678995040462
H           -3.36703439760482       -4.31367662983410        1.17769263342498
H           -2.99003229703347       -2.15215516566459        2.05714152895372
H           -2.22581650626749        0.14085340721735        2.08455304635366
H           -2.90377251179663        2.08259660253020       -2.04569572700395
H           -1.54603105167337        3.03501894598495       -1.51397582603250
H           -1.50729799890508        0.06275146648200       -1.84331772765400
H           -0.54500399033408        1.33675903076499       -2.63438087116429
H           -1.08100085236534        1.46014112088655        0.85036842955527
H            0.69191231322493        1.79718209428992       -0.60757373908276
H            2.23700991302376       -0.81740541975210        0.80223479593866
H            2.28857005554619        0.84632282717557        0.22113201305377
H            2.71487604137692        0.04023072437909       -2.08472701109725
H            2.69920257034948       -1.63438988037265       -1.51093252126118
H            4.58637719778787        1.52835311308347       -1.52314744217127
H            6.89426716645421        1.75096794678836       -0.78619607841258
H            8.66544659640145        1.79966990877625        0.75575424805607
H            9.17936506636157        1.15091646349205       -0.82629520531200
H           10.06821878525542        0.70680125396080        0.65489973376346
H            7.12687340492520       -4.27459267579347        1.58805374930204
H            5.51340782663367       -3.54105090474049        1.76530762969227
H            6.06601061845823       -4.11357826853078        0.16605414837556
H            4.44185915667697       -2.43972967279741       -0.01509990489606
H           -0.09074082281194       -1.77833081437914       -1.60700170026864
H           -1.00234784631901       -1.43625699094928       -0.12081792901691
H            0.57820629499794       -2.22947089847308       -0.02885539464016
H           -4.79873309203845        3.08214819313025       -0.22716819598568
H           -4.08434856822356        3.12277139320550        2.74401723846196
H           -5.15873848635162        1.94349550429103        1.99149614832370
H           -5.58165586445430        3.65365467112557        2.00000634548420
H           -2.83984522779708        4.78456998871983        1.37968905848095
H           -3.07960123337224        4.91245114032535       -0.36091556865175
H           -4.39045987965410        5.30649913247557        0.73274363499625
H           -0.72587095045880        2.94907255046434        2.68031727670449
