72
 energy: 68.554766728891 xtb: 6.6.1 (8d0f1dd)
N           -1.60687889208704        3.07774425296566        2.16195411799348
C           -1.88799310708920        2.31377281052878        1.20675956420557
C           -3.11580306835607        2.26870511323113        0.49325563622746
C           -3.54346943335716        0.86813070600784        0.50850440861618
C           -4.50208704382204        0.42843592927836       -0.39636335372367
C           -4.89445161082533       -0.88571420423456       -0.45547528569140
O           -5.82216250013727       -1.37185855912432       -1.32899380178151
C           -6.43690347043588       -0.47550215060296       -2.20906952009638
C           -4.30628625223207       -1.83465018027942        0.40377405917875
O           -4.73494740273526       -3.12854579532047        0.23112785568123
C           -4.28789429979414       -4.10151343128890        1.13916475349976
C           -3.38873508619734       -1.40637035678037        1.34418499875820
C           -3.00590243478438       -0.07629187614726        1.39248308648190
C           -1.86969237621919        1.97147859936348       -1.61385782163674
C           -0.86271668487724        0.91376435328465       -1.69606420217729
C            0.00145782041717        0.81203646132231       -0.49655340687788
N            0.66911424973026       -0.33701422930731       -0.25696901648679
C            2.06772844873703       -0.27091547634356        0.00905328772491
C            2.93830987059655       -0.65351235057437       -1.20138719914174
C            4.37868227894327       -0.51774437209415       -0.83430534651534
C            5.05494852834975        0.66972247837018       -1.02613566237982
C            6.37625061100110        0.80123381738796       -0.62668543713195
C            7.04189425907177       -0.25023602302042       -0.01943129237303
O            8.34107815928735       -0.23593152720959        0.40546766625159
C            9.09383504512274        0.92734322535247        0.18783879255490
C            6.34438765602558       -1.45489376445467        0.21556781226210
O            7.05945588948101       -2.43416962865186        0.84151628033892
C            6.42612860497989       -3.66540494466315        1.07410486054125
C            5.02564110465690       -1.56230173944005       -0.18777195600180
C            0.03374800890126       -1.59366030528463       -0.50754885828625
C           -4.18861718929268        3.30533423354501        0.60023959062124
C           -4.95945607426028        3.08727535073060        1.90578495724252
C           -3.65699526738707        4.72169325876818        0.59717204767666
H           -4.91520220789065        1.15369304171244       -1.07225423090441
H           -6.98726338324663        0.29584739482467       -1.66024056501237
H           -7.13433382843187       -1.06591799943626       -2.79916272621485
H           -5.71347175923368       -0.00070616933933       -2.88288421624564
H           -4.52373465245278       -3.84519339218847        2.17652508295531
H           -4.79618400913885       -5.02615989176699        0.86617991685103
H           -3.20781870573430       -4.25268037513392        1.05636557709210
H           -2.93780302218495       -2.10572256515813        2.03329829773827
H           -2.28846832047790        0.21377146240164        2.14572854661222
H           -2.81153514441768        1.86424940367802       -2.11683322394020
H           -1.45817335409752        2.94459913870279       -1.79697504532322
H           -1.28589010473884       -0.04072765334349       -1.97165743580031
H           -0.19475481659283        1.26526153181036       -2.50135737560652
H           -1.26888696075225        1.34778651759718        0.72693980159027
H            0.62336774366449        1.69100645663400       -0.36345025856618
H            2.30791051825188       -0.91661695656713        0.85236553975641
H            2.28602839653893        0.75713793110637        0.29999085172268
H            2.68221540133365        0.01853509763185       -2.02433590667073
H            2.70687734336923       -1.67276989083669       -1.50355917787757
H            4.55952650701757        1.50701346588431       -1.49678861115254
H            6.87398799958141        1.74283612354816       -0.79465063410852
H            8.67635572169230        1.79274281059361        0.71553055946007
H            9.16661695144382        1.15731404391024       -0.87919435823933
H           10.08565352402628        0.71247839906919        0.58393494607962
H            7.17880706405504       -4.29586873410809        1.54517392388048
H            5.56678696774505       -3.56488918874741        1.74589766548785
H            6.09875678183490       -4.13199072012273        0.13802597448834
H            4.46794033589567       -2.46944582267364       -0.02026355663157
H            0.00279743605422       -1.87626974781365       -1.56996453064340
H           -0.99034499282331       -1.56811694274479       -0.13005354352416
H            0.59032048519385       -2.34969343173257        0.03352250590732
H           -4.88299051556491        3.16166269882489       -0.23241039325494
H           -4.31814077743295        3.27583527821197        2.76618322048687
H           -5.35710545867576        2.07701816467964        1.99961932104876
H           -5.77747944258076        3.79524295414660        1.92395335763766
H           -2.99791931052823        4.87386194833796        1.44627354198203
H           -3.11599937233760        4.96479751836489       -0.30131904808578
H           -4.49760898033147        5.39173052861665        0.67582664779786
H           -0.73515930527976        3.06360695132227        2.66770358663535
