72
 energy: 27.563408689494 xtb: 6.6.1 (8d0f1dd)
N           -1.21645421664018        3.19273199469434        1.86601248241914
C           -2.29201694685066        2.72496927192606        1.56879659981193
C           -3.47026993557441        2.37532743627593        1.13333307702511
C           -3.78353297382272        0.98517522322775        0.82295641720222
C           -4.69697752929973        0.57465828906357       -0.15482242011699
C           -4.90174200342770       -0.77092968126775       -0.38639994158649
O           -5.75461064380831       -1.26372393598266       -1.32489343178743
C           -6.47898445102095       -0.35274030957037       -2.11087701954092
C           -4.20359876907116       -1.74426280165688        0.36532886010686
O           -4.47356302922141       -3.04908878115918        0.05380014740543
C           -3.88451552043521       -4.06068599317662        0.83710998085177
C           -3.31583367822729       -1.32558680580964        1.34112681246491
C           -3.11698959047081        0.02217314725183        1.56594537482425
C           -1.33573932903983        1.78263758902046       -2.39194311494923
C           -0.36092331860131        0.77337195793221       -1.96569004184580
C           -0.22283572587544        0.60477340668680       -0.40805807123753
N            0.56587639338710       -0.53106786090832        0.00784357820263
C            2.00209101177876       -0.41610773457189        0.16454961158001
C            2.86984982482275       -0.70668941704883       -1.08481023792311
C            4.32759687404805       -0.55025382880206       -0.75409859183711
C            4.99209841776489        0.64145361233809       -0.97314860543901
C            6.33344558500416        0.78218623828751       -0.64116246296513
C            7.03544451114820       -0.26853504427214       -0.07858168329147
O            8.34914401392253       -0.24582939465777        0.28222118082172
C            9.09656293166285        0.91809166735147        0.04287404271501
C            6.36581676902745       -1.49261157414219        0.15738007660744
O            7.12823333180223       -2.47158796080755        0.72059086599895
C            6.53705216738392       -3.71692056491622        0.98624629387058
C            5.03145772889183       -1.61342707724931       -0.18452179369705
C            0.10960983961135       -1.84478043446288       -0.37376938035314
C           -4.49251450886831        3.46937917475438        0.86934141603527
C           -5.47421797048069        3.41758344784381        2.01290356083503
C           -3.91411752889666        4.87309450025866        0.72443689963565
H           -5.20371456615078        1.30889468418838       -0.76439731936625
H           -7.14528107402622        0.27591718608072       -1.50839846737454
H           -7.07397529486341       -0.95367906797898       -2.79347122698842
H           -5.80453700910580        0.27835730372703       -2.70122287615157
H           -4.13313160493002       -3.98032759462121        1.89920075984984
H           -4.27384379758870       -5.00210445203061        0.44905062910967
H           -2.79481305903954       -4.05187483165942        0.73187659438243
H           -2.78541562160900       -2.03045098891230        1.95811209513106
H           -2.43417525329274        0.34644896410578        2.33518094312583
H           -2.38726054635251        1.55948040263594       -2.33016691311478
H           -1.04157382459535        2.81107070591169       -2.49702700444689
H           -0.64784881195884       -0.19915556992862       -2.36790370090376
H            0.63980503930204        1.03732833717453       -2.28397186529784
H           -1.24204129380995        0.53153202845666       -0.01237304286964
H            0.27532342491946        1.49768905847100       -0.01927619271036
H            2.32105118124937       -1.10956712870821        0.95524261574552
H            2.22366478851559        0.59457871548018        0.50734496678213
H            2.59854694570264       -0.01345824966856       -1.87992140895812
H            2.67997043704306       -1.72376325189421       -1.43406157165418
H            4.47381120843741        1.47670101383380       -1.42008882193136
H            6.82119060971906        1.72616570794802       -0.82843386642124
H            8.71216583663629        1.77575607079807        0.60615749311268
H            9.12219818815767        1.16573809157910       -1.02225285097501
H           10.10620124248756        0.69140165346862        0.38564219387659
H            7.32641308144738       -4.32690336319904        1.42343246081405
H            5.70987835301299       -3.63568981851754        1.70077150325520
H            6.17948138694681       -4.19352246748630        0.06690977318846
H            4.51421946895047       -2.54538530557572       -0.02080715193645
H            0.28544300146776       -2.08254873155149       -1.43452000139991
H           -0.96005555375783       -1.92053845478581       -0.18325223676004
H            0.63394554758836       -2.57903283857951        0.23860264714149
H           -5.04566016483092        3.23482843722817       -0.03751240921574
H           -4.94661170053720        3.66779083608744        2.92619682048000
H           -5.88929360651416        2.41639913383960        2.10006532432240
H           -6.27185617170527        4.12798630351476        1.83019192623520
H           -3.40116587374606        5.15927502172874        1.63360486106188
H           -3.18744838586787        4.91765677910415       -0.07555642211033
H           -4.71894385778668        5.57448420796168        0.51066107974218
H           -0.85613808038442        3.27338652572820        2.81204826947223
