72
 energy: 69.049012027732 xtb: 6.6.1 (8d0f1dd)
N           -1.55859936648829        3.08727262019447        2.19138615524372
C           -2.06724450247529        2.50056321303102        1.26247913769385
C           -3.22143902304397        2.29991313672372        0.64478071806658
C           -3.59361254462515        0.89680603373940        0.56402265488235
C           -4.53739670245834        0.46316625078078       -0.35648287883151
C           -4.89998036917751       -0.86128506617373       -0.44132298932364
O           -5.81699427214072       -1.34785387582817       -1.32101901472178
C           -6.44605034096641       -0.45023738644475       -2.19075547491749
C           -4.28206074679340       -1.81542248018567        0.39400576202934
O           -4.68528492265535       -3.11273161404179        0.20267931884313
C           -4.21231894359230       -4.09747351753010        1.08624576822445
C           -3.37594775882509       -1.38274689005264        1.34470517386481
C           -3.02468674816865       -0.04665281739390        1.42032932527531
C           -1.74978718355822        1.90705778753746       -1.78484600161338
C           -0.74842263905959        0.86613541951760       -1.73702165985222
C           -0.10477040601095        0.76607693352539       -0.36462826203469
N            0.64872235264458       -0.39053356329201       -0.16879533503034
C            2.05890661475145       -0.30744578899251        0.04054867991717
C            2.92540505930062       -0.66745016725988       -1.18135748605432
C            4.36871812545996       -0.52372586716459       -0.81677662946656
C            5.04314402545118        0.66348493115182       -1.01528590929633
C            6.36930039646139        0.79501110240150       -0.63102552296126
C            7.04506786325982       -0.25612250558326       -0.03532456202413
O            8.34560546462921       -0.23694784864821        0.38185748130609
C            9.09581359645051        0.92691476468970        0.16093571351328
C            6.35391141116721       -1.46412014918173        0.20195475946318
O            7.07877793698194       -2.44408213466163        0.81956229834847
C            6.44779433482338       -3.67531661669165        1.05836361142933
C            5.03122237648252       -1.57205881719502       -0.18984659116735
C            0.04806070514463       -1.64814778557081       -0.48163606614224
C           -4.26480445884878        3.35891432968563        0.61777821906409
C           -5.06040037335939        3.15624602163951        1.90381607548463
C           -3.70675133346051        4.76100763399386        0.60937969072353
H           -4.96828281440344        1.19132163988328       -1.01871710526116
H           -7.01677957442395        0.30033318899067       -1.63284256689969
H           -7.12746475464000       -1.04248937955646       -2.79701544496503
H           -5.72742929085118        0.05067223833759       -2.85050959015365
H           -4.44961630491576       -3.87076029299797        2.13014340023990
H           -4.69809463968999       -5.02908177941712        0.79456148949117
H           -3.12978735285510       -4.22062404962492        0.99525517077543
H           -2.91115987540342       -2.08220483549379        2.02249070092718
H           -2.31154242401709        0.25333516811451        2.17483869658830
H           -2.75491139190700        1.76642994858976       -2.13756101574288
H           -1.39646609044311        2.90040307338733       -1.93651961341964
H           -1.16961402002710       -0.07612618279066       -2.06013709490038
H            0.00138901330653        1.22603151584544       -2.44299957821455
H           -1.19713289522230        1.03748278588954        0.46118947044122
H            0.56464906907489        1.62848259968814       -0.24670054910127
H            2.33699700689635       -0.96127612018626        0.87280975197956
H            2.28019710678440        0.71668210585280        0.34063866980877
H            2.66361708295545        0.00965424305876       -1.99652997428140
H            2.70699322646196       -1.68697786216750       -1.49547406737750
H            4.54360457749869        1.49967508566447       -1.48240743573891
H            6.86495247747585        1.73775230310208       -0.80161862374200
H            8.68195072172283        1.79046890579223        0.69490141547071
H            9.15866106412247        1.15980466664559       -0.90593391414992
H           10.09218880858261        0.71374517700571        0.54745822264241
H            7.20470168892137       -4.30543027560001        1.52351774307954
H            5.59298476411625       -3.57679430433125        1.73655829798476
H            6.11393365230694       -4.14164454225865        0.12447448310115
H            4.47856644987938       -2.48242842759022       -0.02170866103439
H            0.05095406821199       -1.92129287432013       -1.54997116087147
H           -0.98607519434270       -1.63676422390033       -0.13465733888523
H            0.59523960127120       -2.40855062530279        0.06462025581738
H           -4.92611750393083        3.20550447781849       -0.23332674778669
H           -4.43404686472972        3.35173173461844        2.77581583738436
H           -5.45485080708806        2.14469600642490        2.00299957880448
H           -5.87391347175746        3.86473606150188        1.88829476527366
H           -3.07919357233225        4.92254221673330        1.48139846901159
H           -3.11383914533067        4.98041670249163       -0.26084115500646
H           -4.54473681460237        5.43484223740991        0.64429041001940
H           -0.65585746598153        3.15336331894231        2.58820393497847
