72
 energy: -5.562723065256 xtb: 6.6.1 (8d0f1dd)
N           -1.51063790709309        2.82070772598169        2.23539759329354
C           -1.58582059902022        2.16082730886321        1.16992079174628
C           -2.76802765744315        2.08317794024173        0.24690194348312
C           -3.33308139415087        0.66910459524859        0.34140069699909
C           -4.31948475972177        0.26466390086319       -0.55884268966775
C           -4.85266227289461       -1.00821931479165       -0.52308839404132
O           -5.81967703451648       -1.47696399671023       -1.36074095251307
C           -6.39952210055785       -0.59506690891432       -2.28581155294223
C           -4.39043971733153       -1.93175377194240        0.43975392460624
O           -4.96720251733905       -3.16532728020565        0.39108945472485
C           -4.62693062213221       -4.10163521523792        1.38048527626820
C           -3.42058716022436       -1.52999007033218        1.33724797291186
C           -2.89742698082201       -0.24258253231853        1.28678940207021
C           -2.18009115260495        2.26579766574566       -1.20025821201402
C           -1.22607297881667        1.16221153653946       -1.68172423261634
C            0.00752952713204        1.10851672340985       -0.84944699936803
N            0.63958369152657       -0.07361247293638       -0.54024556126033
C            2.00893167184023       -0.05649595476091       -0.14518510553699
C            2.93803910513735       -0.55158155367237       -1.27397254922349
C            4.36310666051086       -0.44116574168985       -0.84064846943777
C            5.07571428965041        0.72530179552812       -1.04231539934448
C            6.38660020998213        0.83848325239097       -0.60416443192374
C            7.00222538300224       -0.21314823580686        0.05040202228205
O            8.28291845708753       -0.21387889600098        0.51821037013994
C            9.07179341875057        0.92796750834664        0.30717574554164
C            6.27766361952099       -1.40545342945034        0.27406737810627
O            6.96344287411725       -2.38768493795517        0.92390704683676
C            6.32701304307537       -3.61917310823863        1.14495802116459
C            4.97159936803127       -1.49933041214932       -0.16598003156109
C           -0.04263056053112       -1.33026053215757       -0.61142276207931
C           -3.89876228331958        3.09583122506059        0.57996100666880
C           -4.53841996212696        2.80492546517062        1.94011570990715
C           -3.42024348288845        4.54446128657792        0.55499554329343
H           -4.68203655482050        0.96724546734680       -1.29060825484845
H           -6.86265453380337        0.26346101447181       -1.78825197362192
H           -7.16929440333721       -1.17319578763440       -2.79458409142446
H           -5.67106318291997       -0.24116835941592       -3.02361896795299
H           -4.84813912671225       -3.72832120442445        2.38578565414261
H           -5.24292380334104       -4.97556199471943        1.17557614727166
H           -3.57038896867443       -4.38448009319493        1.32560571515473
H           -3.05752000477482       -2.20999330078041        2.09182849312193
H           -2.15763142739746        0.04241312258566        2.01932814458994
H           -3.00389799019499        2.33617156269828       -1.91075204476732
H           -1.62944122222214        3.20868255080065       -1.24960059045370
H           -1.75599513046873        0.21157399991308       -1.66441122770291
H           -0.93892237962012        1.37659243712187       -2.72785323456996
H           -0.74079640526430        1.60145940332339        0.69077027400267
H            0.67240939387492        1.95277987602623       -0.89910985442525
H            2.13646868093668       -0.68973043347852        0.73905132979053
H            2.29691265981719        0.96200631430481        0.12499625574406
H            2.75768751949152        0.06316908761901       -2.15721646695346
H            2.68373608018541       -1.58481136196493       -1.51271793689190
H            4.61532967918546        1.55723453019244       -1.55464542875902
H            6.91914971999961        1.75792637865699       -0.78665881813373
H            8.65344668530154        1.80876060157605        0.80670997416676
H            9.19714632619533        1.14195725257240       -0.75965704049843
H           10.04130678351909        0.69382506690639        0.74405029043718
H            7.06745646521230       -4.24276590166921        1.64376179910586
H            5.45020467940960       -3.51282080954187        1.79304793677785
H            6.02817705913146       -4.09605005318542        0.20486304054016
H            4.40777559083583       -2.40584422333181       -0.00713984616998
H           -0.20071594827088       -1.65062181429913       -1.64759202388280
H           -1.01413149166647       -1.27357979938415       -0.11186506393064
H            0.56347924996488       -2.07847115456082       -0.10703657198262
H           -4.67077398172312        2.97317534766699       -0.18702331346099
H           -3.81103765663458        2.94118529951830        2.73353147319197
H           -4.92238242009605        1.78860870087156        1.98497428830620
H           -5.36586806865148        3.49144301337114        2.11051649213728
H           -2.63890549163242        4.69850700455521        1.29263405881482
H           -3.04752274177250        4.82655462923597       -0.42447156972604
H           -4.25130800223375        5.20111643987395        0.79849989014174
H           -0.62118883384716        2.79462527294737        2.72815544198052
