72
 energy: -0.444145023591 xtb: 6.6.1 (8d0f1dd)
N           -1.54360524067211        2.92514301578627        2.21625030961278
C           -1.66008552031530        2.20256929387756        1.19720451190535
C           -2.81728533172183        2.13506343120038        0.24538827383752
C           -3.37396340686140        0.71620317449567        0.37484412938546
C           -4.35685324086345        0.30349496367440       -0.52282684228351
C           -4.86267463285366       -0.97965852546923       -0.50756316678142
O           -5.82021767713949       -1.45279971222208       -1.35404774013444
C           -6.40661581420919       -0.56767564650597       -2.26932352405127
C           -4.37460399707970       -1.90972825870284        0.43334636545829
O           -4.91581651815128       -3.15970604018078        0.35332177131548
C           -4.55192230412658       -4.10424596373780        1.32588081525227
C           -3.41775090432672       -1.50037935340327        1.34109432312025
C           -2.92247407305461       -0.20130315698016        1.31002173446995
C           -2.15212036084300        2.18963456314276       -1.23837040827499
C           -1.15307812247276        1.10770528594590       -1.68014667017642
C            0.01035709006538        1.05342973972152       -0.75213353309275
N            0.65000286720510       -0.13320188657581       -0.47972952806769
C            2.02440187360306       -0.10661449548236       -0.11255010903388
C            2.94303695310714       -0.57534181996537       -1.26062752208947
C            4.37111192989247       -0.45928708650247       -0.84508191006339
C            5.07512461965291        0.71223545298241       -1.04132068581518
C            6.38708144732781        0.82988146503880       -0.60809035420510
C            7.01358037835023       -0.22193714733531        0.03600946250128
O            8.29906855859327       -0.21908603050658        0.49530488691517
C            9.07762367287452        0.92850086337798        0.28081191335567
C            6.29449644274961       -1.41622027073506        0.26159157389077
O            6.98637310154769       -2.39827792277871        0.90724642612714
C            6.34973661231641       -3.62952226572012        1.12787477071200
C            4.98602895689735       -1.51307757567341       -0.17217664355964
C           -0.02544522887361       -1.38897676995327       -0.58734703846702
C           -3.95723463338249        3.14155849378831        0.56644301737713
C           -4.62432719222034        2.86328653997981        1.92443608678606
C           -3.47240169902259        4.58428645021855        0.56194385730343
H           -4.73183767753217        1.01066378317237       -1.24263614039203
H           -6.88920508367331        0.27179546083920       -1.75859138591044
H           -7.16038505296753       -1.14925859950089       -2.79729584703663
H           -5.67760673799279       -0.18647984783083       -2.99298851415627
H           -4.77700398125285       -3.75460564187158        2.33830924294222
H           -5.14371852057115       -4.99128849837926        1.10684705959561
H           -3.48876899961609       -4.35677392449602        1.26516477902168
H           -3.03106964216206       -2.18815341922900        2.07728183099853
H           -2.18514663484384        0.08242518702205        2.04533601384216
H           -2.96306224025845        2.23565919597738       -1.96483223077877
H           -1.59785100602644        3.13019461469145       -1.34738072778812
H           -1.65774348536510        0.14692067272449       -1.73841157641320
H           -0.78218284768672        1.36838309365459       -2.69676597139909
H           -0.86542615984613        1.51067658891832        0.79501481576202
H            0.69213369387962        1.88504598698552       -0.78875280055623
H            2.17802084317631       -0.74099468505838        0.76491792890513
H            2.29214137657878        0.91527798750723        0.16205040041754
H            2.74040340016835        0.05361262709460       -2.12870082245116
H            2.69148765586705       -1.60550257214277       -1.51195437691697
H            4.60409342012195        1.54592720565893       -1.54121313851498
H            6.90948972975843        1.75624643730163       -0.78373732663271
H            8.65785071815717        1.80531569395978        0.78648853374609
H            9.18953110838099        1.14667760045492       -0.78643945782857
H           10.05303296303827        0.70048888799233        0.70794860724667
H            7.09200639643142       -4.25642144885048        1.61983284423263
H            5.47637847183982       -3.52456523922003        1.78060825805631
H            6.04404299952623       -4.10234128276428        0.18772812970123
H            4.42243515201676       -2.41886860926959       -0.01043703337651
H           -0.15883309390377       -1.70366425688055       -1.63016478601190
H           -1.00932704677259       -1.33854599198421       -0.11292681380872
H            0.56908606150796       -2.13980331540657       -0.07461082242510
H           -4.72213910862848        3.01669863869451       -0.20355217790862
H           -3.92014377986237        3.01456487159076        2.73722531805514
H           -5.01692394926432        1.85035445626222        1.98810084062672
H           -5.45286211448445        3.55646393075601        2.06720249915297
H           -2.71884750004404        4.73013455226371        1.32912743763188
H           -3.05853458538083        4.86047881946920       -0.39936430046893
H           -4.30691003722077        5.24439300785747        0.77330255033918
H           -0.66203320952633        2.85233174157241        2.71170789050084
