72
 energy: 4.324273657882 xtb: 6.6.1 (8d0f1dd)
N           -1.56130535363428        2.97496189690425        2.20303002164663
C           -1.69714900290482        2.23223767609037        1.20060638655157
C           -2.84428893161829        2.16257954493918        0.24207282776718
C           -3.39374764108983        0.74035374696217        0.39067931648639
C           -4.37536340589812        0.32255145885884       -0.50499833263405
C           -4.86710044606063       -0.96565773020143       -0.49967739355492
O           -5.82007374032849       -1.44071049356951       -1.35033132858551
C           -6.40968530297387       -0.55368230250963       -2.26067970397372
C           -4.36562749705887       -1.89891019698119        0.43003632484013
O           -4.88954785666146       -3.15627405155257        0.33523291848045
C           -4.51435724761118       -4.10535481846978        1.29906317505799
C           -3.41523627447068       -1.48535296005367        1.34270769266721
C           -2.93449213696956       -0.18032938882407        1.32130971936639
C           -2.13413775151437        2.15826095240303       -1.26454351198053
C           -1.11652744354608        1.08115228218874       -1.67778846898334
C            0.01091465503450        1.02440941835578       -0.70708946603401
N            0.65387286791514       -0.16259288061425       -0.44740389187460
C            2.03136101130996       -0.13119069890729       -0.09582813311547
C            2.94421354910191       -0.58706797119181       -1.25362635570198
C            4.37373465272829       -0.46821647522375       -0.84602821336518
C            5.07355492751164        0.70588446355894       -1.04016705088122
C            6.38627001486597        0.82572934136522       -0.61030127880568
C            7.01828471547229       -0.22610478556044        0.02868402930546
O            8.30609111282147       -0.22162686734402        0.48340955240402
C            9.08010006931803        0.92844455486264        0.26765235215836
C            6.30196692137596       -1.42144231524482        0.25549020027160
O            6.99699177065053       -2.40338234585216        0.89874076154728
C            6.36036542591246       -3.63444218963874        1.11984549154037
C            4.99225657809535       -1.51990085621622       -0.17469219077800
C           -0.01702535815401       -1.41798535392091       -0.57607075996984
C           -3.98730268509895        3.16489434343139        0.55963685999472
C           -4.66676065450269        2.89247236036208        1.91656006253466
C           -3.49837102640387        4.60453212937157        0.56482522997871
H           -4.75640236958176        1.03155871896240       -1.21926152732611
H           -6.90173612411992        0.27616532675603       -1.74351046583120
H           -7.15563158441053       -1.13639742399198       -2.79819517097013
H           -5.68060841710427       -0.15897563876221       -2.97714338733774
H           -4.74147847308238       -3.76824367665223        2.31508698532511
H           -5.09430095196651       -4.99846806687759        1.07266410185213
H           -3.44830476944248       -4.34330792437695        1.23553001616251
H           -3.01742519911109       -2.17631304735023        2.07049124518140
H           -2.19882521358736        0.10155972280883        2.05886225503503
H           -2.94366158030964        2.18412618526627       -1.99198062420352
H           -1.58250129467462        3.09569660316860       -1.40152251330335
H           -1.60953985239542        0.11729766491442       -1.77222433186248
H           -0.70465437924157        1.35889669574456       -2.67706695087141
H           -0.93700086046918        1.48042863323984        0.83931312839942
H            0.69629318944442        1.85394766098700       -0.73076897814542
H            2.19820251950023       -0.76694520622487        0.77722485576548
H            2.29092814824961        0.89183585893356        0.18163384264381
H            2.73169731968776        0.04880608320676       -2.11431934347019
H            2.69464110268820       -1.61565508266632       -1.51182188019450
H            4.59796997830928        1.54023761691935       -1.53477757343932
H            6.90409014091145        1.75505280257375       -0.78360913591392
H            8.66026692855868        1.80353960989436        0.77641808694068
H            9.18576604435751        1.14847583138017       -0.79973771542398
H           10.05818558329452        0.70289182277424        0.69008226281236
H            7.10375377427395       -4.26262630002464        1.60845034330155
H            5.48889712133039       -3.53016786712536        1.77516251404102
H            6.05131514501725       -4.10561309936120        0.17990173462114
H            4.42881551150151       -2.42537388242998       -0.01173393290963
H           -0.13600265157438       -1.72934447182441       -1.62236941792493
H           -1.00758783384293       -1.37115074329376       -0.11573753599006
H            0.57172395648415       -2.16966499970737       -0.05864832444325
H           -4.74833806565943        3.03890123421373       -0.21211570020028
H           -3.97422853516566        3.05123177202420        2.73890790147378
H           -5.06385972017900        1.88141146951660        1.98947575120454
H           -5.49518145550875        3.58903273085153        2.04429612437261
H           -2.75868488388026        4.74703810415926        1.34617571338202
H           -3.06460616900650        4.87816697996702       -0.38710160614281
H           -4.33460720538995        5.26545436186310        0.75991485253807
H           -0.68418190897473        2.88301399767367        2.70263852386351
