72
 energy: 23.696705787923 xtb: 6.6.1 (8d0f1dd)
N           -1.22627563644291        3.13668502106332        1.91706069683314
C           -2.36429476241643        2.78392724575277        1.68252958878032
C           -3.50701397669935        2.43860226567030        1.14280873540198
C           -3.77103274340674        1.01879404158840        0.88308029599348
C           -4.67368678709178        0.60274651975054       -0.10139989923620
C           -4.87934905431114       -0.73867871346383       -0.36319162390689
O           -5.72216908141309       -1.23283839122469       -1.31420124581923
C           -6.46205673065964       -0.33714841441324       -2.10280312620497
C           -4.18578281001722       -1.71627891204043        0.38452917324679
O           -4.46681939614870       -3.01245408434520        0.06120891411412
C           -3.86042281382844       -4.03671487244856        0.80517502493388
C           -3.29698484559242       -1.30491281259755        1.36192127344290
C           -3.08837981824807        0.04371790347593        1.60276019834172
C           -1.23974263541358        1.75449762988141       -2.42288408662723
C           -0.25218450772500        0.74539983617818       -2.04755363016629
C           -0.21317288042094        0.52848648370471       -0.48847680505758
N            0.57959876553845       -0.56309317689810       -0.01329156890167
C            2.00249315715382       -0.39749026130974        0.12828427292276
C            2.87750781650561       -0.69934805004082       -1.11075506843077
C            4.32875361312136       -0.54656760360884       -0.76355953579908
C            4.99189342584032        0.64720955684622       -0.97462169747193
C            6.33164536820936        0.78888061803026       -0.63742598543436
C            7.02832975356963       -0.26480530071986       -0.07526332611945
O            8.34398739938130       -0.24675389725355        0.28328688346142
C            9.09328267617689        0.91519145232356        0.03897079796834
C            6.35701255894667       -1.48598326841233        0.16057352316871
O            7.12177406850800       -2.46557964762486        0.72142712102826
C            6.54033416812758       -3.71805457760168        0.97387799490848
C            5.02416747203479       -1.60820220802648       -0.18434038766122
C            0.12628045424362       -1.87723207882997       -0.38572512211577
C           -4.57403061898842        3.49522423379415        0.91875167290672
C           -5.56526985334986        3.46161075471749        2.08559484885425
C           -3.96915688501328        4.88798861810678        0.76024850311850
H           -5.20544139718396        1.33943445588035       -0.68118804750187
H           -7.13828440025521        0.27523835400191       -1.49612388801663
H           -7.05069118917028       -0.96162914526641       -2.77373378458874
H           -5.81358729283499        0.31601413016584       -2.69697388843862
H           -4.12028435174190       -3.97474873967613        1.86769000973909
H           -4.25332155764686       -4.96559753654848        0.39377194125226
H           -2.76977098675375       -4.02894472101730        0.69843204982719
H           -2.75843265702861       -2.02835177406965        1.95380771199576
H           -2.38713051527644        0.33823786950981        2.36913829806172
H           -2.28367877279185        1.54633314823225       -2.28237102477777
H           -0.95083014902592        2.76513151344949       -2.63463517009413
H           -0.51810712903750       -0.22433169609812       -2.48120472620601
H            0.74364790348939        1.03037140640851       -2.38926499840230
H           -1.24246264837459        0.35441319795453       -0.16100985530464
H            0.14226762546860        1.44704526393276       -0.01777437149242
H            2.32790040522932       -1.06503169091321        0.93626435793893
H            2.19060266690782        0.62950864989636        0.44975313306643
H            2.61764483757329       -0.01477748497480       -1.91778164199046
H            2.68156487601129       -1.71965886116496       -1.44432177109075
H            4.47009826280908        1.48331110314013       -1.41601144128780
H            6.82165865910137        1.73146845585112       -0.82452218053303
H            8.71234583111130        1.77187218196314        0.60553978766080
H            9.11620557715283        1.16697375853370       -1.02688480507744
H           10.10332565110249        0.68395663002197        0.37476883361907
H            7.33633260274244       -4.32583195230594        1.40221073092323
H            5.71595441882407       -3.64645873298092        1.69186219888545
H            6.18065920588160       -4.19213179541587        0.05416306078773
H            4.50371001634821       -2.53909860362454       -0.01757414163289
H            0.28684824523716       -2.12448249987444       -1.44516972052060
H           -0.94260774753323       -1.94608362460600       -0.18004061361699
H            0.65137321585612       -2.61634980265297        0.22036001126981
H           -5.11543164372595        3.25685274137806       -0.00135834843392
H           -5.06194865154591        3.72321311688255        3.01458948742831
H           -5.99305113486923        2.46723977993303        2.19534374229977
H           -6.37245621682853        4.17210789327392        1.91957112174112
H           -3.46154217745580        5.19512096962050        1.67227517845358
H           -3.24747426694878        4.90005135921431       -0.05334132990121
H           -4.75130617629756        5.61277531365971        0.54293362169279
H           -0.86163460586036        3.24930229523182        2.85470038992970
