72
 energy: -3.762162298666 xtb: 6.6.1 (8d0f1dd)
N           -1.52695958586054        2.87308975198768        2.22734977406679
C           -1.62301154739327        2.17817172218191        1.18701659520469
C           -2.79192720516716        2.10906375195011        0.24717833565662
C           -3.35390539181311        0.69267179334225        0.35833996737973
C           -4.33831715503375        0.28422682571656       -0.54083329067518
C           -4.85783175731177       -0.99384138527826       -0.51541340483092
O           -5.82008931052457       -1.46486732807109       -1.35753475355170
C           -6.40326373868251       -0.58142584100591       -2.27766113229772
C           -4.38270270329534       -1.92058902494358        0.43652937417787
O           -4.94163541661253       -3.16257793401175        0.37195433014447
C           -4.58947890661137       -4.10277532359957        1.35312014713196
C           -3.41924539482118       -1.51508878898663        1.33912078342917
C           -2.91003401263246       -0.22182784813343        1.29832955318871
C           -2.16682536535394        2.22707079155067       -1.21808395645061
C           -1.18981686310874        1.13523521608464       -1.68242161910038
C            0.00895808914726        1.08147054866627       -0.79998835144613
N            0.64521053684945       -0.10352365639357       -0.51126556552278
C            2.01682992242495       -0.08153827009398       -0.12900687101963
C            2.94102560425052       -0.56337376420655       -1.26723852156469
C            4.36758636371282       -0.45003626678741       -0.84315136198637
C            5.07589055007605        0.71889067917822       -1.04192551628780
C            6.38719372609578        0.83425689026135       -0.60578911467351
C            7.00822601080325       -0.21754180031852        0.04344522519496
O            8.29139317582824       -0.21653520433499        0.50694902323700
C            9.07491347080596        0.92828693032819        0.29390045791919
C            6.28633615440735       -1.41077180355923        0.26802590234828
O            6.97509355197686       -2.39300078106016        0.91581359523560
C            6.33851853188709       -3.62442142147496        1.13631723309843
C            4.97904925814057       -1.50598029757582       -0.16898667577382
C           -0.03389582360330       -1.35984898686512       -0.59933328708528
C           -3.92775009893057        3.11851555007841        0.57348569320002
C           -4.58141468911261        2.83376094434407        1.93243736788701
C           -3.44630809164528        4.56418088026424        0.55905858157157
H           -4.70709652593838        0.98909950082413       -1.26664841483566
H           -6.87608392817439        0.26765851184595       -1.77343744716803
H           -7.16506824058341       -1.16140752609241       -2.79599084577144
H           -5.67447791528040       -0.21387282168510       -3.00847358048659
H           -4.81253625073196       -3.74092214331304        2.36192445692385
H           -5.19342021659750       -4.98333793856841        1.14127567349967
H           -3.52951627714904       -4.37031974810605        1.29521638919152
H           -3.04399097121543       -2.19912656614687        2.08425552415347
H           -2.17094783155004        0.06305868411363        2.03157615722620
H           -2.98369479006100        2.28661394835991       -1.93766454027180
H           -1.61263653580746        3.16905187836254       -1.29793565549286
H           -1.70646531813928        0.17854250327728       -1.70261586953655
H           -0.86073457141725        1.37397796943530       -2.71474412060339
H           -0.80047143371072        1.55221118144372        0.74374041227946
H            0.68392682262820        1.91787581622788       -0.84555540594527
H            2.15743706694857       -0.71467438987656        0.75258067487829
H            2.29375180129204        0.93895781734569        0.14280481258760
H            2.74902030105292        0.05842698006669       -2.14289100805360
H            2.68798123295755       -1.59513053091559       -1.51194193596795
H            4.60989907995857        1.55185492446871       -1.54758555689207
H            6.91467054000173        1.75723128292776       -0.78461909031091
H            8.65562271109806        1.80696885446374        0.79653882575758
H            9.19324210869826        1.14445560952300       -0.77317770277264
H           10.04751465184222        0.69743476936552        0.72576847995721
H            7.07981929439481       -4.24987727613018        1.63155759663836
H            5.46341571586364       -3.51883626904381        1.78668493109606
H            6.03615380323258       -4.09904643774230        0.19608914915650
H            4.41523497885202       -2.41202720484562       -0.00837448226268
H           -0.18038810599457       -1.67748885139203       -1.63873172708977
H           -1.01141522386493       -1.30602245587587       -0.11192930306809
H            0.56610433612267       -2.10987888890388       -0.09101172310443
H           -4.69616470204763        2.99500563850388       -0.19500233375340
H           -3.86554010929241        2.97732472751106        2.73548219865197
H           -4.96952560009035        1.81906310348930        1.98649705716896
H           -5.40966093570457        3.52341887527703        2.08977228742081
H           -2.67876806270942        4.71366128639515        1.31156841100018
H           -3.05286631376449        4.84298623202908       -0.41143791705773
H           -4.27881681850547        5.22318803529034        0.78656651134289
H           -0.64167801565036        2.82175770762835        2.72109471708571
