72
 energy: 56.390938454268 xtb: 6.6.1 (8d0f1dd)
N           -1.62174581427316        3.10722813463297        2.16180464552573
C           -1.84768331213830        2.31573322512676        1.20383513385733
C           -3.05573274298199        2.25807362923939        0.41684196751976
C           -3.51344425206299        0.85035371102107        0.48545193569471
C           -4.47878661441838        0.41220178857879       -0.41478457184082
C           -4.89033994921754       -0.89844818510918       -0.46285404270319
O           -5.82314720759614       -1.38231910532671       -1.33225781061278
C           -6.43267601693263       -0.48825912255072       -2.21829800825523
C           -4.31673186039656       -1.84542645732662        0.40833128824817
O           -4.76024253390148       -3.13352517950881        0.24818928726116
C           -4.32539396213770       -4.10305586224986        1.16613374571197
C           -3.39478428669375       -1.41747412126451        1.34455294243033
C           -2.99402866387213       -0.08993652397907        1.37954223315062
C           -1.93880051483008        1.99925891907809       -1.52655990433440
C           -0.91549696895397        0.93576848242815       -1.68867192850206
C            0.00922440851277        0.84642038719056       -0.54010258171333
N            0.66895784231568       -0.31162315009236       -0.28695005746635
C            2.06346177115852       -0.24920504104841       -0.00929151893622
C            2.94170003946462       -0.64312559163590       -1.21193878496605
C            4.37989684696610       -0.51128881573130       -0.83948982803749
C            5.05928215308838        0.67504294376746       -1.02928088641309
C            6.37846004567359        0.80498425620134       -0.62338151362745
C            7.03859348731003       -0.24679121318556       -0.01106621072252
O            8.33648149906453       -0.23379514670397        0.41923059084175
C            9.09187066647861        0.92751433025155        0.20122184111345
C            6.33792519550195       -1.44942983227253        0.22265023079263
O            7.04944159206478       -2.42936767495693        0.85208460593683
C            6.41495531817301       -3.66023339121172        1.08187157748649
C            5.02091363681671       -1.55563383524838       -0.18602242119369
C            0.02580230788933       -1.56585024486970       -0.51922501834661
C           -4.15232040585125        3.28125747224422        0.58181154651045
C           -4.90514205772712        3.05177692533216        1.90292702052310
C           -3.63094752096735        4.70288849308986        0.58948739372034
H           -4.88795733570957        1.13386136044515       -1.09769164759973
H           -6.97357493366162        0.29296896764446       -1.67453934405451
H           -7.13790587535222       -1.07803978777417       -2.79998132759864
H           -5.70745308627242       -0.02701183822806       -2.89923375722895
H           -4.56032215363177       -3.83250253718145        2.19992818458449
H           -4.84549376143522       -5.02321580234382        0.90133760971737
H           -3.24729045333357       -4.26816928693459        1.08658413971235
H           -2.95127722973034       -2.11623418031698        2.03917711541414
H           -2.27177727242072        0.19687912489220        2.12903853854972
H           -2.83865994334902        1.91796766582241       -2.11265866747968
H           -1.49164477898847        2.96005780201901       -1.71989368223661
H           -1.34742237617458       -0.02613330750993       -1.94695659444529
H           -0.29477543763202        1.27762413595463       -2.53814055551650
H           -1.21854265335112        1.41038216168269        0.75825409144265
H            0.64841085842602        1.71404500526987       -0.42675729598737
H            2.29206260907184       -0.89180226156673        0.84014234112467
H            2.28698526439029        0.77857991929133        0.27933941487334
H            2.69086630291756        0.02373367014123       -2.04012914391254
H            2.70567241105609       -1.66371442197781       -1.50624232173421
H            4.56647343794367        1.51210996524904       -1.50308175166340
H            6.87858153942919        1.74524988843874       -0.79142678103786
H            8.67358336638385        1.79453007918320        0.72556970284179
H            9.16970817016260        1.15591047796836       -0.86601528174362
H           10.08168747454221        0.71154697946804        0.60160509540158
H            7.16562717555107       -4.29098524910810        1.55579167301135
H            5.55340847669983       -3.55886560697775        1.75064294081289
H            6.09045797971778       -4.12712114991508        0.14488263234237
H            4.46149026424719       -2.46188519347005       -0.01892452625466
H           -0.02058071845837       -1.85336142154930       -1.57987253197195
H           -0.99347600339935       -1.53490090511893       -0.12821612313913
H            0.58665279161132       -2.32134532895078        0.01854210678636
H           -4.86347742759038        3.14271704438460       -0.23444172595240
H           -4.25759130402168        3.23746671510877        2.75897813925068
H           -5.30656358834525        2.04316719960634        1.99735538946405
H           -5.72602776281434        3.75934449521304        1.94189552202604
H           -2.95853694445777        4.84916080325114        1.42922516168706
H           -3.10724484048805        4.95363175006465       -0.31762474861270
H           -4.47141318396942        5.37100024793999        0.69029683932859
H           -0.75682644906679        3.04688909000460        2.69496981517726
