72
 energy: -99.646780659316 xtb: 6.6.1 (8d0f1dd)
N           -1.70465632989398        3.07621805815830        2.28248541266801
C           -1.68943537342014        2.29730930818098        1.29534953664565
C           -2.83766959718290        2.13462513504840        0.33628860702109
C           -3.32300348409742        0.69622588963807        0.39077235731272
C           -4.21735258003654        0.22271181215959       -0.56911517917313
C           -4.69588514826383       -1.07308605082299       -0.53333821972456
O           -5.57788645034300       -1.60875058843420       -1.42643103643116
C           -6.12873186654264       -0.77508621431302       -2.41497048753374
C           -4.26700359306174       -1.94729404231258        0.49039697680316
O           -4.78405437596306       -3.20791992009197        0.44141233425973
C           -4.45683072915785       -4.10597186317466        1.46910007732996
C           -3.38728169624606       -1.47549803824770        1.44452699793251
C           -2.92275393464458       -0.16805039828770        1.39222955358886
C           -2.27650600075293        2.46125539629210       -1.07462930043231
C           -1.36248542992346        1.39088916513660       -1.69875920579157
C           -0.02290580348057        1.34574370736567       -1.07225193883885
N            0.64381031793637        0.16813517399173       -0.78941320928015
C            2.00851738465222        0.15200090886546       -0.34366477000249
C            3.00338873690453       -0.41377331253977       -1.39692999688271
C            4.42390900061945       -0.48893736579191       -0.85819001867674
C            5.21684851939266        0.61481460727992       -1.13497432334122
C            6.50873899151066        0.59922719806636       -0.65399001236085
C            7.06057128638639       -0.46970288257653        0.09572690261968
O            8.37856659383504       -0.34073817160622        0.45947401164840
C            9.08949514841152        0.83719377006446        0.08473709630114
C            6.27799830541102       -1.65343206154685        0.44495844763647
O            6.85988665776139       -2.73165877378361        1.32847019678248
C            6.35547194054532       -4.13913526033338        1.54248525717306
C            4.97198188915400       -1.56459212723018       -0.09248590180584
C           -0.01755772428288       -1.11454436880925       -0.90146974618113
C           -4.05235184267823        3.06096362653409        0.64264504262901
C           -4.68025049664662        2.73036115726156        1.99657942190825
C           -3.71057275283730        4.54900946709544        0.59359160778878
H           -4.54651701878183        0.88651242599327       -1.35165944828129
H           -6.66209849470553        0.07820014772256       -1.98008316144818
H           -6.83362498806387       -1.39870314732092       -2.96373111905453
H           -5.36489905185559       -0.40734289278974       -3.10784234721929
H           -4.76808865081861       -3.73291706548120        2.45099719050663
H           -5.00379534268650       -5.02013671810993        1.24102170766392
H           -3.38368684377338       -4.32218750300466        1.48944470685502
H           -3.05213999065073       -2.11436126725505        2.24591037048171
H           -2.25195159428004        0.17146536859745        2.16556131848326
H           -3.11527781934858        2.61438912877358       -1.75584512778587
H           -1.71585397275167        3.39560050387370       -1.01138152543005
H           -1.86231582266263        0.42533621845022       -1.65706875761745
H           -1.25875677712100        1.64937484506780       -2.76485231719369
H           -0.81352472995587        1.69981673529604        1.00876362120093
H            0.56177279277473        2.24997436962819       -1.05074047614101
H            2.10422476012003       -0.45474982939032        0.55919887079965
H            2.29775039503039        1.17174059735243       -0.08580751728289
H            2.95336003174775        0.26274464965343       -2.26131034574506
H            2.65519269915058       -1.38831875190407       -1.73497132730819
H            4.84843996992656        1.46329692831572       -1.71738473237251
H            7.09403645691694        1.47814904418713       -0.90772398347267
H            8.66843420361834        1.77028625506074        0.49651364679219
H            9.17955877100516        0.95862195949884       -1.00342363005686
H           10.08980756456446        0.70803769259559        0.49338801598311
H            6.98521323773810       -4.96180508253076        1.16585015055110
H            6.16218519034000       -4.57197103663030        2.57449611144750
H            5.38192077664718       -3.93907671242760        1.11399972870316
H            4.26843333275733       -2.36700557574226        0.09649433617067
H           -0.21182590030623       -1.35256012149164       -1.95679740181212
H           -0.97181580750729       -1.12797050008786       -0.36630924358433
H            0.61547189424422       -1.89352322879852       -0.47499007521706
H           -4.80433652028537        2.86269613405225       -0.13220113167252
H           -3.96307561167456        2.92315857496434        2.78725387040591
H           -4.98955444106625        1.68724688485588        2.04406880159966
H           -5.55856582709207        3.35274884314119        2.16124449401938
H           -2.95327269007007        4.77588828671789        1.33592248976606
H           -3.35247901107183        4.84642170007039       -0.38837653124734
H           -4.60358288999770        5.13236601465859        0.81798479514758
H           -0.84516807669853        3.10879802626446        2.82497351727692
