25
 energy: -1.946604624242 xtb: 6.6.1 (8d0f1dd)
C            3.20351868877952        1.32422378922584        0.08867362770462
N            2.37041408094402        0.10192056413938        0.02377604661145
C            2.62900620945692       -1.28470970314804        0.03288393617535
N            1.42466532267004       -1.98705443385514        0.00315343531022
C            0.41068184867563       -1.10362389580402       -0.01169280559307
C            0.96021493064966        0.17457009625376        0.00426146398272
C            0.14683184165039        1.33134901021498       -0.01124031150942
O            0.53418320930901        2.50277660396899       -0.01593726721794
N           -1.24382565135095        1.01485125680768       -0.03199838406042
C           -2.17226960025993        2.13269191886071       -0.04742298638254
C           -1.81280402042155       -0.22191169257646       -0.04788713713678
O           -3.01644891206407       -0.39057491745095       -0.06931110694752
N           -0.94226628596877       -1.32977615986794       -0.03833178484645
C           -1.52295662232338       -2.65399127106795       -0.06156736078377
H            3.70518722813946        1.41864203047349        1.06048598966741
H            3.99809176504473        1.28282048807357       -0.66997889377085
H            2.57859588374110        2.21401222328290       -0.06362536794726
H            3.57910072741953       -1.75741733205629        0.04444180693900
H           -1.59200107779945        3.05185013837395       -0.02315601613831
H           -2.77663476032862        2.10031018367183       -0.95252715079885
H           -2.82582702169562        2.08207383031049        0.82177075181807
H           -1.24741643819238       -3.22108882348540        0.83029904575230
H           -1.21989274253902       -3.20076245942294       -0.95734706467990
H           -2.60689714472769       -2.52510879719806       -0.07655293474232
H            1.32008692198144       -2.99215656778397       -0.00781679115133
