25
 energy: 13.936545761673 xtb: 6.6.1 (8d0f1dd)
C            3.18513157432534        1.47431293305974        0.08741800393686
N            2.40557419526348        0.07103716891542       -0.00917466842418
C            2.64006340838073       -1.34280489700029        0.04390364208603
N            1.43249437839075       -2.05226941816755        0.01190208057354
C            0.42185032935020       -1.16078955852934       -0.01692784357404
C            0.99083346850874        0.11589491457509       -0.00899563613604
C            0.17618072080301        1.27066580473390       -0.02030030737169
O            0.55726706002249        2.44308346740267       -0.03061704351622
N           -1.21620293705098        0.97822508278884       -0.03265108120089
C           -2.11931311423990        2.11837968697440       -0.04556744537950
C           -1.79675413876526       -0.24879698958710       -0.04752141032310
O           -3.00209711951031       -0.39811330156707       -0.06229470006067
N           -0.94076884092140       -1.36915301827711       -0.04140838254388
C           -1.57419679337724       -2.67057441791514       -0.06282401450796
H            3.67736911354250        1.61234292755712        1.05527268951205
H            3.98052569469910        1.52079385606353       -0.66800416136916
H            2.46868591546867        2.31551804670912       -0.05016823131715
H            3.56920463112967       -1.86227999189725        0.04070779711824
H           -1.51390058371163        3.02091732263706       -0.01987590388654
H           -2.72029054762113        2.10799306290012       -0.95268085957834
H           -2.77222454770882        2.08805813997998        0.82443981932616
H           -1.32417491360938       -3.24872038541642        0.82881924394565
H           -1.29711351857464       -3.23072308836657       -0.95814971550500
H           -2.65437621944344       -2.49823777587246       -0.07668853828990
H            1.32285586235963       -3.06375068348270        0.00787178689705
