25
 energy: 33.386348150123 xtb: 6.6.1 (8d0f1dd)
C            3.50021560564076        2.34566167478956        0.15381448304935
N            2.33064689444207       -0.34761897807050       -0.06010294055096
C            2.46382743290319       -1.62898051875093        0.00624035216155
N            1.26841233603025       -2.30741005988113        0.02872278837579
C            0.31173659317146       -1.33613021184937       -0.02157228195656
C            0.98503093509545       -0.12305541240686       -0.05978893625759
C            0.23547823502791        1.11067521450735       -0.07075477254308
O            0.66799697094433        2.23511347536677       -0.08704207035757
N           -1.14348833191980        0.89370349094721       -0.04115452060814
C           -1.98084715470185        2.09000175759421       -0.03312546245997
C           -1.81053720603754       -0.30350714750626       -0.04597433124555
O           -3.02075711381467       -0.33986425482383       -0.05158638403477
N           -1.04032889506082       -1.46694549728697       -0.04016977502855
C           -1.74498050270073       -2.72381448684646       -0.06891089507731
H            3.80514437293827        2.18127127206584        1.15580177481782
H            4.14329320536055        2.15575355542767       -0.65340301788043
H            2.62379260091314        2.91724119977709       -0.03762967912397
H            3.39614585440207       -2.14158486652023        0.02039577147362
H           -1.31729497431598        2.94892045926005       -0.00688792378941
H           -2.58408032354942        2.13308750686205       -0.93627836511198
H           -2.62268140638407        2.09099659368534        0.84500890783723
H           -1.53812145378795       -3.31845573572974        0.82118258459692
H           -1.50507761936394       -3.29704583467944       -0.96546765942651
H           -2.80610243358369       -2.45617527855163       -0.08423997155943
H            1.14038550261301       -3.30910974091505        0.03883863542183
