25
 energy: -4.713122306496 xtb: 6.6.1 (8d0f1dd)
C            3.21709989117233        1.27415347709864        0.08796190670158
N            2.34665028453016        0.10525501286690        0.02543675903681
C            2.61902050351798       -1.26667007324231        0.03183657159549
N            1.42211256014010       -1.96826158697009        0.00196208837650
C            0.40560493873216       -1.08793061853755       -0.01094894223647
C            0.94518265968377        0.19257519141248        0.00695450944112
C            0.13662836280963        1.35141098331330       -0.00875488751854
O            0.52458971940274        2.52314350240677       -0.01089099089030
N           -1.25186987971211        1.02795643314976       -0.03140018737536
C           -2.18923121958466        2.13807117014841       -0.04813137923280
C           -1.81467285162358       -0.21207142673874       -0.04767664953599
O           -3.01674211029638       -0.38585223180268       -0.07006314140691
N           -0.94212553610123       -1.31859423602238       -0.03787829373720
C           -1.50587702499122       -2.64931302721320       -0.06115766297482
H            3.71081597250545        1.35198708932009        1.06376104986244
H            4.00498771479182        1.19985384267793       -0.67073901170356
H            2.62634088510313        2.18219438145199       -0.07327402103821
H            3.57861312039290       -1.72000214266692        0.04359154765078
H           -1.61801885168547        3.06320972440388       -0.02369062745447
H           -2.79343886543438        2.09729191264711       -0.95327380539277
H           -2.84419832357816        2.07959907823078        0.81979060311618
H           -1.22074423254256       -3.21172926509162        0.83084468294125
H           -1.19415105400971       -3.19120445288736       -0.95712293955016
H           -2.59044023486234       -2.53446829826683       -0.07589512565640
H            1.33543774684150       -2.97321164369478       -0.01013366137376
