25
 energy: 35.982955057699 xtb: 6.6.1 (8d0f1dd)
C            3.34527934141052        1.94622729170955        0.11340224163955
N            2.36668173992311       -0.17765782395611       -0.06440177227249
C            2.55022609300090       -1.46386348999167        0.01160212110389
N            1.36581526905025       -2.17351927477218        0.02957897069617
C            0.37708564656237       -1.23920089582644       -0.01844567709936
C            1.00534733198209        0.00220460656779       -0.04349710489721
C            0.21269123036835        1.21220477168762       -0.04123226229286
O            0.59048278809587        2.35754091893474       -0.06730998740688
N           -1.17615148456308        0.94384906307614       -0.03519752639162
C           -2.06275304334923        2.10475666870341       -0.04188110193587
C           -1.79393083093966       -0.27532946584933       -0.04709289970128
O           -3.00173494442087       -0.37497577223201       -0.05367301648525
N           -0.97412285888037       -1.41284393080021       -0.04237957065673
C           -1.64173305932741       -2.69166191249856       -0.06457511476521
H            3.68789327907118        1.85501477706313        1.10201640762897
H            4.00832133823132        1.77467493712854       -0.68695787770867
H            2.52253228841501        2.59837688250765       -0.05237865448920
H            3.50328248832012       -1.97476496778325        0.04185619029288
H           -1.43968335345258        2.99349853266131       -0.01543650553135
H           -2.66607972878056        2.11457543438559       -0.94733838377301
H           -2.71238643934209        2.08833005982091        0.83059829485779
H           -1.40809704675505       -3.27533034412337        0.82699359330999
H           -1.37788659618564       -3.25652554996103       -0.96021678729620
H           -2.71243281123308       -2.47192708003993       -0.07934558753031
H            1.25821516839019       -3.17818590476970        0.04458363324068
