25
 energy: 34.360042759089 xtb: 6.6.1 (8d0f1dd)
C            3.43764713651136        2.18191789129293        0.13883482861129
N            2.34578710270347       -0.27640585469793       -0.05675813002208
C            2.49484182873721       -1.55861306471132        0.00605869935668
N            1.30688464655606       -2.25254176448356        0.02534619078218
C            0.33858691582435       -1.29549189173177       -0.02286868887943
C            0.99485968189663       -0.07059029032348       -0.05657504148896
C            0.22932611836732        1.15372835222841       -0.06419650842859
O            0.63861345450858        2.28662630007884       -0.09304329195664
N           -1.15395523091361        0.91480591100141       -0.04088643918518
C           -2.01206055609434        2.09628253212478       -0.03812544342157
C           -1.80052833473578       -0.29214911339445       -0.04633341167891
O           -3.01029234134669       -0.35182459563377       -0.04684211884636
N           -1.01141824230395       -1.44657452322940       -0.04276327128513
C           -1.70360381363462       -2.71019202406412       -0.06788054923790
H            3.73697450132235        2.05561260449628        1.14002309144595
H            4.07806113612284        2.00086360811484       -0.66904402761872
H            2.58835034262273        2.78858156588730       -0.04630775529951
H            3.43595630913808       -2.07166783738931        0.02504314725550
H           -1.36362820711554        2.96592753146804       -0.00946896316536
H           -2.61466560013543        2.12655571011327       -0.94299140250078
H           -2.65677410882056        2.09120306982938        0.83771954509337
H           -1.48656386781564       -3.30124719024224        0.82282452318579
H           -1.45539992098002       -3.28028858808060       -0.96427910314583
H           -2.76702354169125       -2.45278648690225       -0.08271894356706
H            1.19034113272458       -3.25619110663661        0.03561444607673
