25
 energy: -6.167385944111 xtb: 6.6.1 (8d0f1dd)
C            3.23108077554779        1.22376621220350        0.08715767145340
N            2.32384810495895        0.10678837663041        0.03007106416420
C            2.60991953786574       -1.25054191121267        0.03194625241786
N            1.42202298806380       -1.95226502278647        0.00129828475161
C            0.40266484914625       -1.07382530916142       -0.00977761234820
C            0.93120413645946        0.21014184478038        0.01057423798361
C            0.12664251538559        1.37031798519194       -0.00693697640239
O            0.51237357967551        2.54355027377045       -0.00758798345604
N           -1.25967187186682        1.04013088776474       -0.03131388275604
C           -2.20545832010179        2.14360256369021       -0.04871353806554
C           -1.81492775999509       -0.20329734657104       -0.04749407229012
O           -3.01519173708298       -0.38497712165722       -0.06999692277851
N           -0.93982744770883       -1.30860668209723       -0.03764346800837
C           -1.48803157096573       -2.64451840789785       -0.06084132691918
H            3.71705747790906        1.28492275423763        1.06620272841610
H            4.01045960391555        1.11685394459443       -0.67214217120857
H            2.67169780377957        2.14654890267318       -0.08250701586716
H            3.57814252517360       -1.68343260391761        0.04346520079197
H           -1.64343576867944        3.07490731726236       -0.02423415442790
H           -2.81042846460809        2.09526647599733       -0.95332385877289
H           -2.86152431032182        2.07766517115827        0.81819058860168
H           -1.19327807061217       -3.20129947283384        0.83181740976022
H           -1.16785448982288       -3.18094505582665       -0.95736932290052
H           -2.57290275468011       -2.54145233598063       -0.07516248428919
H            1.35422895115549       -2.95734848411961       -0.01220825075812
