25
 energy: 31.485219329011 xtb: 6.6.1 (8d0f1dd)
C            3.62660428846751        2.65599641256362        0.15001294173712
N            2.31523878551900       -0.48456093698191       -0.06267382627385
C            2.41886859337679       -1.76842293710555       -0.00424917217308
N            1.19346675680474       -2.40137486407946        0.02208417688319
C            0.26779789196751       -1.40333280616326       -0.01684547234826
C            0.97503793156636       -0.21190215106667       -0.05304904565489
C            0.27834272765033        1.05290892927478       -0.05277078022061
O            0.75393790060671        2.16039590973091       -0.05437513596772
N           -1.12062647806780        0.87296931708310       -0.03375450460006
C           -1.93543513881796        2.08172444565220       -0.03066187942692
C           -1.82793150621080       -0.30772191299211       -0.04577086309138
O           -3.03926753502115       -0.32081264328084       -0.06108225239702
N           -1.09006516907852       -1.48997268704235       -0.03496059113369
C           -1.80233340119432       -2.74837994989331       -0.06626967468335
H            3.93301557028937        2.43823919766544        1.15114817321628
H            4.28189325427650        2.43421672199875       -0.66501659469233
H            2.70903103156179        3.16964204129221       -0.04064005712835
H            3.35049831101551       -2.29565705874546        0.02605631622844
H           -1.25027385352231        2.92603484104876        0.00575105607455
H           -2.54620432360516        2.12357442504675       -0.93212654954605
H           -2.58980618957626        2.08625584611224        0.83958271795688
H           -1.58648847299809       -3.34311272269210        0.82272652494171
H           -1.55320637670860       -3.31813821968696       -0.96384091903791
H           -2.86678840900388       -2.50553529876112       -0.08326163089108
H            1.02688881826919       -3.39499835346359        0.01679733100097
