25
 energy: 32.894214175129 xtb: 6.6.1 (8d0f1dd)
C            3.53190247938914        2.42285122149754        0.15328690700294
N            2.33007493065119       -0.38323469599292       -0.06632319900494
C            2.45319699774256       -1.66521543366114        0.00331492074791
N            1.25070521328724       -2.33185866674462        0.02816044216622
C            0.30151352376549       -1.35412425914041       -0.02194540481127
C            0.98629439455236       -0.14760088987052       -0.06415546172936
C            0.24696966736670        1.09192964515790       -0.06877992570332
O            0.68642797612518        2.21372939769888       -0.08025296805911
N           -1.13437783892690        0.88405994045591       -0.03911539417556
C           -1.96430231624942        2.08485597747056       -0.02861678200924
C           -1.81455429528731       -0.30851131334722       -0.04516171151083
O           -3.02509440762555       -0.33997996475852       -0.05518149651835
N           -1.05220687689584       -1.47713025125990       -0.03898964156884
C           -1.76310261542897       -2.73164423914306       -0.06867477354647
H            3.83302216777055        2.24353810706737        1.15678940806297
H            4.18001155134125        2.22914779371111       -0.65481162337769
H            2.64753830603874        2.98264546937371       -0.03743576464719
H            3.38220206617745       -2.18239426515873        0.02409214379820
H           -1.29354294917066        2.93905659181156       -0.00299089495643
H           -2.56726884684100        2.13396052463624       -0.93157673676692
H           -2.60547826742418        2.08628889485438        0.84992994084731
H           -1.56189127174345       -3.32908859704355        0.82036393756827
H           -1.52914427621942       -3.30596119154899       -0.96598543851608
H           -2.82420960002101       -2.46541333917242       -0.08249363983407
H            1.11185197173934       -3.33110842324496        0.03625650067735
