25
 energy: 32.558788849099 xtb: 6.6.1 (8d0f1dd)
C            3.55994540112963        2.50128745989013        0.15367152058151
N            2.32961037934469       -0.41712625777629       -0.08067062901782
C            2.44312472008964       -1.69987143577797       -0.00321295521583
N            1.23238770716301       -2.35362501533444        0.02687757011754
C            0.29190742130334       -1.36930497311941       -0.02191131036734
C            0.98692499672589       -0.16798056127366       -0.06741631278382
C            0.26200845953949        1.08070928666918       -0.06337195764278
O            0.70918964337332        2.19991769930693       -0.06455478938626
N           -1.12392201526206        0.87690381773706       -0.03471041151667
C           -1.94839454001017        2.08018864512028       -0.02519562605621
C           -1.81692133023740       -0.31142452523497       -0.04534850238548
O           -3.02803251264520       -0.33759494907717       -0.05873984221986
N           -1.06361826862177       -1.48317364838314       -0.03722751578284
C           -1.78098652804975       -2.73696928855132       -0.06829113615323
H            3.85467306662264        2.31614349839319        1.15862458922926
H            4.21225249536109        2.30590567376724       -0.65531045311954
H            2.66643189268792        3.04465571822965       -0.03823543844644
H            3.36964468694873       -2.22269597588175        0.02764434627109
H           -1.27139009428140        2.92939414100670        0.00483764904248
H           -2.55103748224715        2.13157710402918       -0.92938539408371
H           -2.59193322770827        2.08247082882540        0.85106106390773
H           -1.58786294658650       -3.33722488287990        0.82001165602683
H           -1.55445023634348       -3.31333298952246       -0.96572428952309
H           -2.84187586273812       -2.47303497428239       -0.08400400519456
H            1.08149943710020       -3.35020814342754        0.02907615218474
