25
 energy: 7.326786358467 xtb: 6.6.1 (8d0f1dd)
C            3.17899352513009        1.42294165023955        0.08797921458936
N            2.39752922785284        0.08045329936718        0.01008426862269
C            2.64439265638147       -1.32767239002610        0.03814999213144
N            1.43348189122066       -2.03209459234558        0.00728032435331
C            0.42092364738224       -1.14256618824194       -0.01523475306157
C            0.98294200267591        0.13404544397930       -0.00390234049129
C            0.16655804136680        1.28976037412329       -0.01626369145198
O            0.55029158987151        2.46169310485426       -0.02541518756870
N           -1.22591096221420        0.98969443230810       -0.03213127382470
C           -2.13662286566014        2.12361725154374       -0.04578630002774
C           -1.80206765751187       -0.24105188979322       -0.04765147822017
O           -3.00656261469841       -0.39934333102612       -0.06553893659717
N           -0.93988519094098       -1.35657780652665       -0.04031650095671
C           -1.55590384355379       -2.66576727263941       -0.06267195110437
H            3.68334703823453        1.55087451708444        1.05536316627603
H            3.98061046874157        1.44133485612202       -0.66735877929213
H            2.49166360729775        2.27787975220285       -0.05273750470825
H            3.57792016218817       -1.83155821480813        0.04338829972225
H           -1.53845247758961        3.03103893647391       -0.02049208530938
H           -2.73906810268538        2.10794433444780       -0.95208204103135
H           -2.78980277911305        2.08836074949821        0.82400430152300
H           -1.29676957735118       -3.24035304742405        0.82885837117825
H           -1.26909299967239       -3.22074554331922       -0.95826860929697
H           -2.63794478156863       -2.50978729993655       -0.07714822115904
H            1.31073537217555       -3.04041201255193        0.00288950590341
