25
 energy: 30.758290103206 xtb: 6.6.1 (8d0f1dd)
C            3.71272679074959        2.80349434739800        0.14905414198918
N            2.29748443328083       -0.54020506375974       -0.01634472425518
C            2.38040665377101       -1.82717755347721        0.00162365757374
N            1.14673768356774       -2.44037295576910        0.00564564993611
C            0.23874364491756       -1.43000894248436       -0.01654051093206
C            0.96073214297185       -0.24730869838616       -0.02681221972067
C            0.28131261428193        1.02541379378754       -0.02999445690327
O            0.76568636253733        2.12993399516860       -0.02330585493197
N           -1.12134444725962        0.86074797630011       -0.03380527464807
C           -1.92836155087302        2.07420900720658       -0.03858484910671
C           -1.84112631990136       -0.31088401246516       -0.04830283346754
O           -3.05164436283746       -0.32184884727147       -0.06718409606468
N           -1.11713090525395       -1.50110614536613       -0.03714905198464
C           -1.82374012112050       -2.76354393905397       -0.06514183054017
H            4.01116742273243        2.54603551458332        1.14047871689879
H            4.35789417374429        2.56320380935408       -0.66626355824162
H            2.77935348305047        3.26907492229866       -0.04619290692011
H            3.30533890630354       -2.36548669201696        0.01784092456295
H           -1.24910301682271        2.92349839134492       -0.00850966278821
H           -2.54056999948065        2.11213038861486       -0.93919144756970
H           -2.59013956883504        2.08626045142868        0.82686592728181
H           -1.58885163244230       -3.35002361591267        0.82486509181494
H           -1.55962555891156       -3.32883593699842       -0.96103684638714
H           -2.88898989797308       -2.53784199284170       -0.07981812890985
H            0.96683981499613       -3.43081123593755       -0.01005854866984
