25
 energy: -42.069000033926 gnorm: 0.002123376130 xtb: 6.6.1 (8d0f1dd)
C            3.12935340373620        0.93069083019359        0.80982231293688
N            2.40073122243044        0.05047560834372       -0.05828188637210
C            2.89341019973200       -0.94639773039853       -0.79510944789297
N            1.96128968763038       -1.57104296592045       -1.49485136002092
C            0.81427429889755       -0.96943187831378       -1.21101470238812
C            1.03360806319520        0.06930998184473       -0.29259397274316
C            0.17831316568756        1.04684533287186        0.26626964157611
O            0.41110983385716        2.01052044091632        0.92492158591029
N           -1.29002357393266        0.83118159806584       -0.10769623222283
C           -1.92988714142755        1.94090990845066       -0.79734612425890
C           -1.96320588615130       -0.14410145480251        0.34057944146104
O           -3.20043501179348       -0.55014145577656        0.38855270820337
N           -2.04804201272803       -1.20734752253699        1.14014958384497
C           -1.75896117232546       -2.57263042245191        0.83741391491997
H            2.72490057754711        0.88856404338947        1.82176764558353
H            4.17532726247023        0.63204755220598        0.82533338316056
H            3.05297059262212        1.96091549834558        0.45833952937958
H            3.93234545105051       -1.21198814090300       -0.82223255961121
H           -1.62470884229042        2.86624758786449       -0.30728161292006
H           -1.59449130808018        1.95854336534962       -1.83444761249333
H           -3.01234825234127        1.83826435569990       -0.75724892785008
H           -0.73338498998913       -2.74875313947892        1.16329247042529
H           -1.86299650851581       -2.82332203638836       -0.21995225963711
H           -2.42856777851251       -3.18952025750804        1.43577668308078
H           -0.10014976666657       -1.27160055746976       -1.68299058417159
