  72
        -99.26762697
 N         -1.8544452562        2.7965667583        2.2919671678
 C         -1.8577920441        1.9940424865        1.3363408143
 C         -3.0436200924        1.7133878388        0.4576513713
 C         -3.4062089237        0.2457889832        0.5771108909
 C         -4.2362455221       -0.3607814646       -0.3878689294
 C         -4.5580366997       -1.6517468462       -0.2122434233
 O         -5.0743729388        1.3557757431       -2.6600959763
 C         -6.3006726710        1.3386055308       -3.1821146106
 C         -4.1958495785       -2.4875078404        0.8217312262
 O         -4.6160209818       -3.7619570417        0.8428535154
 C         -4.3165566464       -4.5697420984        1.9574957585
 C         -3.3763804819       -1.8726995422        1.7834396053
 C         -3.0035547185       -0.5438213060        1.6478353505
 C         -2.6027240404        2.0603544827       -0.9862083807
 C         -1.6491130121        1.0456202865       -1.6407619575
 C         -0.2983382971        1.0150465150       -1.0516056204
 N          0.3827485245       -0.0760644243       -0.7525067957
 C          1.7634891553        0.0032298447       -0.3322369202
 C          2.7287170467       -0.3420141607       -1.4820075451
 C          4.1532752568       -0.2192826419       -1.0168434175
 C          4.8197236796        0.9937903506       -1.0944096188
 C          6.1287600937        1.1147609290       -0.6555658761
 C          6.7997333821        0.0220137687       -0.1237822309
 O          8.0667923470        0.0193886990        0.3236880414
 C          8.8314416213        1.2007313089        0.2426338721
 C          6.1210553239       -1.2262566478       -0.0322816559
 O          6.8450418849       -2.2322622225        0.4928664052
 C          6.2786868308       -3.5175839592        0.5888172244
 C          4.8109093614       -1.3214327951       -0.4761248614
 C         -0.1861946691       -1.3958005325       -0.9015346314
 C         -4.3082860194        2.5498953055        0.8192890232
 C         -4.8179251083        2.2276753301        2.2214276068
 C         -4.0867050098        4.0536354033        0.6862559087
 H         -4.6015237393        0.2132357519       -1.2426528949
 H         -7.0807980638        1.4608812543       -2.4067529649
 H         -6.5011961166        0.3863558752       -3.7058349302
 H         -6.4332838303        2.1513772361       -3.9163530541
 H         -4.7113385259       -4.1380770835        2.8815391199
 H         -4.8062617031       -5.5227558063        1.7677667987
 H         -3.2386541429       -4.7317799580        2.0584794019
 H         -3.0442792062       -2.4315298612        2.6442793160
 H         -2.3945766899       -0.1077512466        2.4265939951
 H         -3.4937290906        2.1067361595       -1.6139772904
 H         -2.1348445512        3.0448251144       -0.9821399385
 H         -2.1142621098        0.0629103858       -1.6555166654
 H         -1.5418222431        1.3706995922       -2.6832413571
 H         -0.9648040778        1.4296476245        1.0049467291
 H          0.2260431438        1.9553839840       -0.9515685514
 H          1.9243762014       -0.6887479790        0.4989752379
 H          1.9785316526        1.0147023616        0.0186596110
 H          2.5479854653        0.3458118838       -2.3096900065
 H          2.5355983947       -1.3576969244       -1.8290013526
 H          4.3249009816        1.8562703213       -1.5142259545
 H          6.6238303210        2.0682910883       -0.7384190767
 H          8.3921322951        2.0042676424        0.8413110691
 H          8.9427361879        1.5345327168       -0.7932229457
 H          9.8089016193        0.9434469910        0.6460669095
 H          7.0584136933       -4.1492887238        1.0098269046
 H          5.4098826605       -3.5244587514        1.2548132199
 H          5.9914957836       -3.9038769262       -0.3939209949
 H          4.2924886836       -2.2658894743       -0.4197695406
 H         -0.3698847849       -1.6280438991       -1.9522803795
 H         -1.1310222039       -1.4679287739       -0.3587514396
 H          0.5031350842       -2.1325408684       -0.4974052213
 H         -5.0767718173        2.2531753912        0.0971289631
 H         -4.0784901116        2.5158476318        2.9632017961
 H         -5.0371245756        1.1681499411        2.3305204506
 H         -5.7313679377        2.7843199108        2.4136535837
 H         -3.2687254131        4.3740274296        1.3252784930
 H         -3.8797085659        4.3410895130       -0.3402765685
 H         -4.9865796906        4.5755116798        1.0016133805
 H         -0.9885106234        2.9384499719        2.8019312674
