72
 energy: -99.387016509524 gnorm: 0.003949160602 xtb: 6.6.1 (8d0f1dd)
N           -2.36825935181038        1.99590046656910        2.58237644988050
C           -2.34015519467252        2.34036685916315        1.36682913207175
C           -3.17180122372936        1.81695280988412        0.18077752823537
C           -3.75106297427113        0.43192267233110        0.34670705683644
C           -4.95649374285636        0.12952000196525       -0.28916071812318
C           -5.49864372752720       -1.14416200304899       -0.23020770523181
O           -6.65139842900147       -1.53127326506471       -0.80971638653152
C           -7.40255266655117       -0.59616692851036       -1.54688769607468
C           -4.81263190199116       -2.16284766013084        0.48878283415304
O           -5.40891382440277       -3.36926843022991        0.49262040614462
C           -4.78995868826968       -4.43851270326271        1.17004698734585
C           -3.61298037666357       -1.85183036664898        1.10986891434068
C           -3.08687879009053       -0.56997517877753        1.03664652705664
C           -2.42639544119552        1.92605595737781       -1.16054620745689
C           -1.40776985138846        0.81285942905382       -1.40892503637205
C           -0.17137896353180        0.93007834700414       -0.51356421263305
N            0.83549791231804       -0.05492018768573       -0.84032835195082
C            2.18908914480985        0.25522874519492       -0.43321022608436
C            3.19762636862805       -0.11328173452854       -1.53941740630708
C            4.60236834605051        0.05220609672781       -1.04170401238774
C            5.28949051332353        1.24634042191648       -1.21201221083577
C            6.57606724019933        1.40425088196006       -0.72256895390483
C            7.20719338516536        0.36910144172024       -0.04459192720037
O            8.44848857405789        0.40712488120655        0.47039656778784
C            9.22340129805899        1.57458113706867        0.32268258694327
C            6.51033550527475       -0.85948167535173        0.13975792950992
O            7.19363334624695       -1.81091743160274        0.80322442105917
C            6.59606674329081       -3.06728187220404        1.01929981974469
C            5.22331835024969       -0.99106137308189       -0.35930305381514
C            0.45754984899486       -1.41972031379358       -0.56913906003093
C           -4.09189445576903        2.93658910419265        0.49070515464521
C           -5.19456918113640        2.77656926123395        1.47206390776852
C           -3.96361636921687        4.26794939370966       -0.15214813603198
H           -5.46418625672243        0.90924614776329       -0.83428693837225
H           -7.74388616748960        0.23035698005982       -0.91583624106754
H           -8.26583125413414       -1.14405739038887       -1.91943964303770
H           -6.83251205682358       -0.20088171311219       -2.39336451833352
H           -4.68542941096227       -4.22992199554879        2.23907149484432
H           -5.44970156714729       -5.29281874555473        1.03260204735990
H           -3.80796320046850       -4.66664337563955        0.74399372934030
H           -3.07177978937172       -2.60568539018479        1.65779312225119
H           -2.14694686767710       -0.36822015991016        1.52561252173490
H           -3.17486727620777        1.88752179696331       -1.95531291588982
H           -1.91833311536923        2.88816897964002       -1.22875796612715
H           -1.89389688014252       -0.15106281570621       -1.26315838694810
H           -1.07916137828397        0.86918073895351       -2.44802384000567
H           -0.47087865183443        0.85257339563613        0.54424840848300
H            0.27069226743689        1.91810350615839       -0.66372888636882
H            2.45608933861856       -0.28437621345305        0.48677333784965
H            2.27670143994535        1.32333146984400       -0.22768373371231
H            3.01982514050223        0.52921675852001       -2.40159198855552
H            3.03250759968021       -1.14653561191226       -1.84561737560466
H            4.82260803399328        2.06354341364065       -1.73988285463611
H            7.08549746443332        2.34152866642003       -0.87634479969528
H            8.75421174279293        2.43135971696117        0.81562427335587
H            9.39666168100839        1.80897797255563       -0.73178119045741
H           10.17423355690692        1.35652192833242        0.80532459881364
H            7.33771102079260       -3.65533796036608        1.55648940550846
H            5.69148908984695       -2.98110745605972        1.62948409914593
H            6.35490197523825       -3.56412338850798        0.07456771450845
H            4.68897599984274       -1.91927529487278       -0.23009902890461
H           -0.43522005529696       -1.68144744904714       -1.13182704715219
H            0.25991925448757       -1.58611239292074        0.49994719425968
H            1.25939681673963       -2.08557630403863       -0.87881961994582
H           -1.62006285226835        3.09932658838298        1.08818764063478
H           -5.04902415656643        3.44658123279199        2.32326284720288
H           -5.28419569659524        1.75752861454128        1.83849910166289
H           -6.14020769136965        3.06648549718301        1.01011849536807
H           -4.46606632010546        5.02931787823953        0.44046836909538
H           -2.92849478255121        4.56914588380565       -0.29925679713595
H           -4.43160055975411        4.25084786044325       -1.14123000287598
H           -3.05743226068572        1.30556136846410        2.86588529346909
