  25
        -42.08272256
 C          3.1822794004        1.1996992325        0.4162902826
 N          2.2279493694        0.1765977675        0.0954412496
 C          2.4745581090       -1.1282077816       -0.1378297821
 N          1.3758831295       -1.8016568493       -0.4162142280
 C          0.3775770734       -0.9209423697       -0.3627578222
 C          0.8784521482        0.3353322319       -0.0375323485
 C          0.0601587530        1.5422401105        0.0145939153
 O          0.4725181046        2.6814556175        0.0140400952
 N         -1.2834839671        1.2502201133       -0.0339328882
 C         -2.2988578856        2.2594450799       -0.0186169005
 C         -1.1080911112       -1.1048756876       -0.5522251268
 O         -1.7597438292       -0.0327108527        0.1721086803
 N         -1.5331144818       -2.3435593458       -0.1634451595
 C         -2.4799694101       -2.6328060981        0.7900514147
 H          3.3745683656        1.2197759200        1.4912392512
 H          4.1185756665        1.0039053652       -0.1038054994
 H          2.7850801867        2.1695133524        0.1164702091
 H          3.4490193617       -1.5728168162       -0.0939926556
 H         -1.8080691366        3.2277176935       -0.1014584321
 H         -2.9838635621        2.1092271597       -0.8557513580
 H         -2.8721390984        2.2125215208        0.9106817686
 H         -1.9848492553       -3.1349301223        1.6390329701
 H         -3.1505256903       -3.4050814135        0.3844641772
 H         -3.0470178087       -1.7690595810        1.1573045282
 H         -1.3300426546       -0.9657938819       -1.6328707010
