  25
        -42.12062912
 C          3.1885200979        1.4003265978        0.0232309154
 N          2.4087007439        0.1864698880        0.0002103680
 C          3.0153591244       -1.0380588452       -0.0135704006
 N          2.4417491373       -2.1568427016       -0.0208764468
 C          0.4272451408       -1.0866918637        0.0008402322
 C          1.0371582128        0.1177028729        0.0040903656
 C          0.0985389710        1.2622612276       -0.0009153279
 O          0.4381298442        2.4187855197       -0.0069604448
 N         -1.2510564983        0.8895278482       -0.0013430527
 C         -2.2456941758        1.9505000638       -0.0106675722
 C         -1.6828430718       -0.4002984648        0.0024644377
 O         -2.9696458705       -0.5799007661        0.0065460492
 N         -0.8277519563       -1.4026475159        0.0009600141
 C         -3.4731206257       -1.9167556511        0.0141871320
 H          3.7600722373        1.4638647571        0.9514413364
 H          3.8827001572        1.4146238221       -0.8183547917
 H          2.5275401868        2.2626629708       -0.0432255316
 H          4.1004810085       -1.0384146951       -0.0188045382
 H         -1.7232257968        2.9054903156       -0.0085483704
 H         -2.8667207406        1.8674577958       -0.9020637383
 H         -2.8810310829        1.8705898729        0.8706817523
 H         -3.1446138230       -2.4446919528        0.9099596566
 H         -3.1376891703       -2.4585249818       -0.8705045981
 H         -4.5580908841       -1.8161490324        0.0086415870
 H          1.3571926538       -2.1482800299       -0.0144070744
