25
 energy: 137.925357821129 xtb: 6.6.1 (8d0f1dd)
C            3.37158660153402        1.29366808759098        0.10861550609951
N            2.44803845799114        0.18510747643935        0.08939070656821
C            2.75321174607100       -1.11944944398732        0.12871300610610
N            1.62978506058736       -1.84913360781681        0.08935513271167
C            0.53807610418513       -1.01009575943549       -0.00077608015273
C            1.05508814072278        0.29923929745852        0.00275241582250
C            0.17963066046263        1.40495842563362       -0.03198116794481
O            0.52992497205677        2.59193758289661       -0.04852742900632
N           -1.19567993180353        0.98855375899960       -0.05881563904165
C           -2.09574882322533        2.13950620886198       -0.12363392179007
C           -1.72421903638163       -0.24583227757805       -0.08890674360371
O           -3.90375019449304       -2.40350907147221        0.03921124690581
N           -0.78256930987341       -1.30740538991678       -0.11882946293031
C           -1.29765396580722       -2.52486842427912       -0.32166607489681
H            3.91401699195585        1.33564937047194        1.05496812562587
H            4.10088244982035        1.19496386812391       -0.69751472147567
H            2.83222407222720        2.23694048268206       -0.01748866598840
H            3.75683185885003       -1.51680750421927        0.18578827755388
H           -1.47770356422236        3.03277900211936       -0.08053061933439
H           -2.64232097463496        2.10831488057720       -1.07689739890542
H           -2.79754038804954        2.15116378795076        0.70726505412800
H           -0.68016362385115       -3.37416376163369       -0.54611603502932
H           -2.39752699038756       -2.46242446075582       -0.19223051526015
H           -4.77009757862021       -2.92606932263787        0.16257084238400
H            1.58295288902398       -2.86145114676979        0.16686231959055
