25
 energy: 135.416601472220 xtb: 6.6.1 (8d0f1dd)
C            3.37871575322209        1.30064689572394        0.10837368888662
N            2.45360142446520        0.19512284315957        0.08557081554231
C            2.75790981225079       -1.10469141105829        0.11945118156846
N            1.64465600393880       -1.84492272618020        0.07762453098052
C            0.54919285959954       -1.00302690748455       -0.01416548542899
C            1.06040675183507        0.30838677465644        0.00195290205456
C            0.19692669678962        1.42032471730478       -0.04212029383995
O            0.55826647710594        2.60513744495701       -0.05540782995478
N           -1.17207543520518        1.00967109428069       -0.06034414271329
C           -2.08435491118159        2.15207853351577       -0.11535662055328
C           -1.69771099945882       -0.22454807068391       -0.07992341508640
O           -3.98535433330090       -2.49366655949670        0.01568403409828
N           -0.77266047308067       -1.30119143328139       -0.10269157757213
C           -1.26862991189711       -2.53206661520512       -0.28341569827099
H            3.90304057828492        1.35919986964528        1.06395801224563
H            4.11601620621821        1.18808970521315       -0.68710027144252
H            2.82303393711999        2.23197123787893       -0.04141430291946
H            3.76051211785336       -1.50589884182771        0.17975763417680
H           -1.47464002717932        3.05419069631020       -0.07308498562149
H           -2.64203111845975        2.12673455980881       -1.05991310961273
H           -2.78358283668738        2.15283086694959        0.71916423418432
H           -0.64585754808399       -3.39638821589556       -0.44802794528946
H           -2.35243209317222       -2.55102598336821       -0.06452882952178
H           -4.91027321430044       -2.88619803690528        0.08914009535822
H            1.60527021977367       -2.85743979609336        0.14405214392125
