25
 energy: 110.150765915666 xtb: 6.6.1 (8d0f1dd)
C            3.33991423436084        1.28523548255636        0.12728358116953
N            2.38094177045407        0.20581138224027        0.05592806955612
C            2.73401887143585       -1.10762003651646        0.09558360986582
N            1.61384501555065       -1.87936976125393        0.09191341691652
C            0.48907755328284       -1.11294264441211        0.05166834613344
C            0.97001794659141        0.21877817758306        0.03234896671319
C            0.05296361756588        1.29144903427764       -0.04216705167732
O            0.42358486852867        2.47174749379382       -0.11616200832244
N           -1.34398118048715        0.88726825567884       -0.05025447559408
C           -2.14865671698552        2.10818696812077       -0.12312448623612
C           -1.84887027338690       -0.43230506991550        0.04772050635197
O           -2.96579575725642       -0.98874087948983        0.05343948705395
N           -0.84768804329912       -1.44387688193189        0.00857579457487
C           -1.57778057578460       -2.67419740862781       -0.17931026298743
H            3.87909903576787        1.29972511610237        1.08525966579759
H            4.10312873248523        1.19139988650737       -0.65708936515151
H            2.83734899377297        2.24347495117817        0.00909324129276
H            3.73060539282963       -1.50871653458571        0.16299806816204
H           -1.43754242419858        2.94045507071361       -0.04597284414089
H           -2.67228495394657        2.23320955814718       -1.06688256051506
H           -2.82991851644474        2.18351761933635        0.71625313777774
H           -0.95051578850709       -3.53329815347230       -0.11830182671106
H           -2.33585749940742       -2.69368042813389       -0.94200060646800
H           -3.53929781727529       -3.27835634689827        0.49804524755122
H            1.64977855659174       -2.88232235835319        0.07715718391090
