25
 energy: 129.898521154565 xtb: 6.6.1 (8d0f1dd)
C            3.42051902332625        1.30300352630526        0.12677904809685
N            2.48353974770520        0.21226116279100        0.07282130211879
C            2.77683892420257       -1.08751455200664        0.10621630672665
N            1.65793704031341       -1.81943850101018        0.04159594545673
C            0.58188421512137       -0.96205763408919       -0.02184160216681
C            1.10310486119305        0.33985958486062       -0.00191321618123
C            0.26610115445350        1.48720591817402       -0.04395037317038
O            0.65275113543528        2.66238375460730       -0.04974911525077
N           -1.09061351065195        1.09639681177955       -0.07490895592451
C           -2.04357661300028        2.20693365527874       -0.10429687146839
C           -1.61200514137371       -0.12782422812055       -0.09124947905322
O           -3.98467862556732       -2.90511316652742       -0.01170844572810
N           -0.74408668648440       -1.23351455781970       -0.08810275930653
C           -1.20214027778524       -2.49581408431456       -0.17297001054765
H            3.92571479867045        1.33264469153730        1.09245439103452
H            4.17348167383463        1.20177391164940       -0.65573421728430
H            2.86321159486118        2.22990388957928       -0.01699429012606
H            3.76928619899548       -1.48809969251695        0.16609435453187
H           -1.47159885640315        3.13063723712699       -0.04610823575124
H           -2.62478836272242        2.19705197289344       -1.03225753697330
H           -2.73131920480939        2.14786787709141        0.74124963053116
H           -0.49597050651965       -3.32193780691407       -0.17506408318483
H           -2.25518658709107       -2.65853090765102       -0.03424088991261
H           -4.93906947916348       -2.82400411662076        0.09860467447248
H            1.61387650819334       -2.83008164926780        0.05868266441378
