25
 energy: 128.639707986123 xtb: 6.6.1 (8d0f1dd)
C            3.42779512498384        1.30563916776908        0.12592973601364
N            2.49550505733031        0.21071053494969        0.07219189853665
C            2.78034351748229       -1.09033575927269        0.10196503862271
N            1.65440597127221       -1.81104782056069        0.04073956844202
C            0.58638044327917       -0.95081421957401       -0.02297973811143
C            1.11772923100893        0.34989647844396       -0.00225377113127
C            0.29220485300175        1.50637844426861       -0.04387442816699
O            0.68436426804907        2.67904773609553       -0.04723577354209
N           -1.06610650134213        1.12356762217729       -0.07811149400029
C           -2.03024568284360        2.22343384670852       -0.10188922033453
C           -1.59748494909945       -0.09846052801935       -0.09590336069454
O           -4.07287413724630       -3.03236813521855       -0.02050841740291
N           -0.74557975383813       -1.20965732557499       -0.08680667090459
C           -1.24447870900220       -2.45790756758429       -0.15201250076554
H            3.93393162401640        1.32759166261474        1.09361175822319
H            4.17540358881374        1.20483146468888       -0.66104312530110
H            2.87473893765986        2.23715582571647       -0.00808850315996
H            3.76990067507705       -1.49741971301801        0.15755752667688
H           -1.47858414703899        3.16024956365584       -0.04649895619918
H           -2.62015697496694        2.19368463399295       -1.02054735467506
H           -2.71349549233018        2.14229707094344        0.74427711059507
H           -0.56657500089480       -3.30676932618386       -0.13258397052052
H           -2.31572822586977       -2.62600995198537       -0.12583616645674
H           -5.02341694338539       -2.98772098854176        0.09298924660160
H            1.59738585645411       -2.82058296435447        0.05211428059906
