25
 energy: -4.865736287358 xtb: 6.6.1 (8d0f1dd)
C            3.25064735437143        1.18438084049179        0.09075817572572
N            2.31246799611903        0.11164257016031        0.03554400976795
C            2.61901698187888       -1.22984985940501        0.03827551640544
N            1.44153521847151       -1.93014554892335        0.00689137320063
C            0.40646837930022       -1.06719187805838       -0.01250615452197
C            0.92297123388224        0.22725180024900        0.00756744684860
C            0.10613645932970        1.37265255966441       -0.01607799655823
O            0.46664231215604        2.55589666256956       -0.01940715209471
N           -1.28842221016365        1.01920958096033       -0.03752248385149
C           -2.21514386391772        2.13898255150047       -0.05922784711925
C           -1.83252909274754       -0.23737033521494       -0.04540490421236
O           -3.02345354622028       -0.48705281507856       -0.05832576771605
N           -0.93745231920498       -1.32072265411295       -0.03631870755789
C           -1.53510001474652       -2.63646936530990       -0.05710770824758
H            3.73422800816591        1.22850581463726        1.07166882575285
H            4.02172083153192        1.05490434430832       -0.67257514401305
H            2.71213584950178        2.11510383987259       -0.07959282191027
H            3.59765493903860       -1.64227609717851        0.05587250237875
H           -1.63792837768577        3.06401647483218       -0.02939294405425
H           -2.81157210113285        2.10852689551626       -0.96978755666419
H           -2.87219119557770        2.09050572986419        0.80624096269642
H           -1.12696051248705       -3.23856064769484        0.75195553040123
H           -1.29871663965019       -3.13771904571827       -0.99398262485851
H           -2.64016735772787       -2.53490717399096        0.04178629976999
H            1.39654659559636       -2.93258523155552        0.00225694524538
