25
 energy: 147.905222945060 xtb: 6.6.1 (8d0f1dd)
C            3.37252576524741        1.30261094329106        0.12569696451903
N            2.42511142247106        0.19782768467085        0.09000017439482
C            2.74629454509705       -1.11444423658519        0.15925673990069
N            1.62074229732145       -1.86672243733814        0.11963428530115
C            0.52543551142541       -1.04546874848102        0.03801587532573
C            1.03311381239175        0.26858836058395        0.01294966504383
C            0.12597605931496        1.36561871904279       -0.03649713272153
O            0.49252290625770        2.54723915131605       -0.09317872563357
N           -1.25443021727863        0.94467292433314       -0.04967467029694
C           -2.12013184063205        2.11922328164926       -0.13880282122783
C           -1.77944025758393       -0.30309046266229       -0.06330681904271
O           -3.64704139697655       -2.11609165351518        0.08452618293812
N           -0.81048067472255       -1.32957234685725       -0.08510297410238
C           -1.37918335150240       -2.50400331230887       -0.39589997951083
H            3.94019401961898        1.29781379534505        1.06167796889860
H            4.10232643556162        1.24431932509029       -0.68885990855371
H            2.85209065173698        2.25860713680155        0.04295287113431
H            3.75475177234455       -1.46573349900244        0.22455516768127
H           -1.46321006370128        2.99057375993187       -0.08544766386888
H           -2.64321714457289        2.14876627296317       -1.09853188628050
H           -2.84187504419463        2.12980701053138        0.66719195087260
H           -0.84316813796405       -3.41180812813972       -0.50428190414601
H           -2.50070470561330       -2.31542331148429       -0.57451463254641
H           -4.24012037826340       -2.96795889166841        0.29341442233861
H            1.65084698591591       -2.87430621400163        0.17509049778121
