25
 energy: 152.878980182650 xtb: 6.6.1 (8d0f1dd)
C            3.37699027876913        1.30590987573139        0.13444667330934
N            2.41539935984906        0.21151235235894        0.08828950627589
C            2.74263805290454       -1.10168422883619        0.15637361735987
N            1.61975369103467       -1.86874531826360        0.12686426829848
C            0.51493805271222       -1.05934906941133        0.03885122210235
C            1.02329199164618        0.25676940962813        0.01800466251123
C            0.10813276911180        1.35098390780987       -0.03255127191811
O            0.48039759263981        2.52842168833079       -0.09238474303527
N           -1.25635468969919        0.94147610697474       -0.03397582217111
C           -2.11727363428444        2.11787129029907       -0.13372528324342
C           -1.79562027142739       -0.30889227792838       -0.05108511200242
O           -3.54475666486268       -2.04802762518286        0.12401900234295
N           -0.82983091631312       -1.33842895791074       -0.07510557910913
C           -1.43472598206649       -2.52190679613367       -0.36864811865098
H            3.94250099352055        1.30752968523701        1.07336380914820
H            4.11597687308970        1.24394119416164       -0.67402663867607
H            2.87679303069585        2.27203381006558        0.04984670493365
H            3.75064481889236       -1.45331453349933        0.20661532414169
H           -1.44459232958845        2.97617490973219       -0.07012634945604
H           -2.63704652171924        2.16732764507251       -1.09332234036103
H           -2.84001936052885        2.14567254298415        0.67137986026615
H           -0.91021596990749       -3.44901776915499       -0.40457036939702
H           -2.46751813448022       -2.36486911089543       -0.75375099014827
H           -4.06946633369422       -2.97471520035929        0.33223375590314
H            1.67104283217419       -2.87356616478225        0.15096927474479
