25
 energy: 140.431620633445 xtb: 6.6.1 (8d0f1dd)
C            3.36647580138874        1.29264439736197        0.10993754811249
N            2.44111450677696        0.18140340337045        0.09493559112455
C            2.75137880011587       -1.12772190148989        0.14346159623327
N            1.62282401017097       -1.85547677299781        0.10003069012811
C            0.53601803411197       -1.01559903933234        0.01430402324937
C            1.04873473300462        0.29177997163461        0.01145321911575
C            0.16622099595057        1.39477794034075       -0.03042907768744
O            0.51439366788014        2.58153308055964       -0.06353553905895
N           -1.21602569543754        0.97637736747989       -0.05734000550026
C           -2.10708137839422        2.13368716676619       -0.13472118948229
C           -1.74558911383763       -0.25854418947224       -0.08826423109945
O           -3.80932584165241       -2.29707557362767        0.05771243058227
N           -0.78777947124531       -1.29981527141847       -0.12872004897910
C           -1.30869860257152       -2.49232374722354       -0.39783510366433
H            3.92326359763828        1.31619597018199        1.04977528098404
H            4.09009092744513        1.21237787979249       -0.70476749955011
H            2.83295466054358        2.24061943552574        0.00566345780604
H            3.75539346394177       -1.50855494215656        0.21416550892190
H           -1.48328297311364        3.02650271846316       -0.10721759589093
H           -2.64689547231885        2.10188805200078       -1.09189941857365
H           -2.81265839673569        2.14636749489193        0.69081425299090
H           -0.71252584990537       -3.33800605638132       -0.62453675586010
H           -2.42720443206607       -2.38273685940597       -0.32521241746159
H           -4.58889704835246       -2.94780118526941        0.21585321586658
H            1.59419554827254       -2.86664104427028        0.17810490386506
