25
 energy: 132.039245817216 xtb: 6.6.1 (8d0f1dd)
C            3.40344702371800        1.31307677035204        0.11849458331501
N            2.46638741056567        0.22201958668960        0.07535011012075
C            2.76584094668115       -1.07407515105178        0.11378051315869
N            1.65962843416236       -1.82442888580681        0.05362143688877
C            0.57016064929362       -0.97772349173548       -0.01893261851411
C            1.08281857163675        0.32939507562233       -0.00275588249130
C            0.23962951784328        1.46477169040821       -0.04188033446963
O            0.61967276183640        2.64266441204209       -0.04924978253609
N           -1.11854142396900        1.06426087197189       -0.06878895384808
C           -2.05657287475193        2.18560540295209       -0.10387667791690
C           -1.64136372200671       -0.16447962650261       -0.08748792700530
O           -3.88561613265202       -2.73965736023362       -0.00946852610646
N           -0.75666300414475       -1.26423088122241       -0.08819738213515
C           -1.20255107436441       -2.53054683232899       -0.18922859385766
H            3.91040553570828        1.34037979318426        1.08226078106142
H            4.15286498522019        1.19878596885290       -0.66421334246745
H            2.84691873742372        2.24005574872005       -0.03469288892746
H            3.76008909377148       -1.46679954171169        0.18100048834403
H           -1.47049764878911        3.09991389898090       -0.04738377878643
H           -2.62348745073919        2.17075651391892       -1.03838704128817
H           -2.74892123881243        2.15123194629301        0.73864160070962
H           -0.52633871869096       -3.36668419678180       -0.25201086581555
H           -2.26841424323894       -2.69607624713319       -0.05616476056660
H           -4.81846461459091       -2.77913856161980        0.09093102121874
H            1.62804514024576       -2.83525651579575        0.08937465352091
