25
 energy: 24.487734239511 xtb: 6.6.1 (8d0f1dd)
C            3.29200426855719        1.23134482337379        0.10876811586870
N            2.35069193817910        0.14787287588997        0.03978490059216
C            2.69448388160600       -1.19452134078878        0.06893242187671
N            1.52664641347808       -1.91261864547405        0.04567516035511
C            0.43345262701677       -1.11897461957139        0.01235504134812
C            0.94106464984300        0.19992615788493        0.00695660480897
C            0.09041170312656        1.30265544165019       -0.06070015018151
O            0.40365607468853        2.49479217838486       -0.08058776464083
N           -1.35000973745292        0.91324501477223       -0.06210496186253
C           -2.18526753744285        2.10904580542242       -0.09646043898511
C           -1.87363862800000       -0.36719146353168       -0.00400977376357
O           -3.02998206372428       -0.77050396530862        0.00954088603832
N           -0.94193962667713       -1.41947512343923        0.04056383340850
C           -1.73428101137590       -2.70924011864592        0.00649986744140
H            3.80287058987494        1.26892278118568        1.08129934518820
H            4.06475794095852        1.12493057862535       -0.66284493794424
H            2.76984516788895        2.17606308967371       -0.03655265757056
H            3.67972407588689       -1.60749275634885        0.11773853609283
H           -1.53446788588298        2.99004993061981       -0.04758775101196
H           -2.75032784291923        2.16690444969556       -1.02446046248560
H           -2.84509589187743        2.14629987821518        0.76465600224050
H           -1.00994144400242       -3.44137792176704        0.35770463588379
H           -1.90101680059925       -2.95938760575614       -1.05258864558892
H           -2.85318141481006       -2.76226359434867        0.53215575397332
H            1.52246255366207       -2.91377322520034        0.05080637991909
