25
 energy: 132.967418885882 xtb: 6.6.1 (8d0f1dd)
C            3.38625306558565        1.31175005240856        0.11209523270397
N            2.45816695822340        0.21001939982524        0.08126155135158
C            2.76180141411825       -1.08580078018757        0.11724922898341
N            1.65621403827366       -1.83807349261180        0.06691793417359
C            0.56064489778475       -0.99224717662377       -0.01894178170478
C            1.06938944550202        0.31693297405194       -0.00002111249659
C            0.21799072883686        1.44149357877032       -0.03913530630565
O            0.59117313698468        2.62207041524235       -0.05463973047852
N           -1.14646932826384        1.03648359676472       -0.06240243513794
C           -2.06879138654759        2.17206822897599       -0.10716334727089
C           -1.67112146374005       -0.19650106725864       -0.08236851771277
O           -3.95291601898990       -2.58037590255108        0.00860173272180
N           -0.76453365507143       -1.28505226773988       -0.09360963651289
C           -1.22993413279676       -2.53688114638413       -0.23722520339195
H            3.89940706916125        1.36275789293863        1.07487902353666
H            4.13255812309742        1.19704663153906       -0.67407958340157
H            2.82322558817802        2.23576192665329       -0.05308665853765
H            3.76222517719925       -1.47725395560265        0.18255701940281
H           -1.46663022928094        3.08001108557665       -0.05552229515371
H           -2.63042437652761        2.15127323329197       -1.04702973221989
H           -2.76613263114816        2.16202059954318        0.73187434050985
H           -0.58553481218984       -3.39541972781843       -0.34234049736929
H           -2.31104232247294       -2.61940992037963       -0.04879294693362
H           -4.88240780356885       -2.81198726777541        0.09041880060699
H            1.62514688467104       -2.84984000303722        0.11398291398816
