25
 energy: 127.629472395566 xtb: 6.6.1 (8d0f1dd)
C            3.42989573347467        1.30625611954471        0.12238521314263
N            2.49923749624107        0.21173343116661        0.07013225412890
C            2.78799365044278       -1.08708589258358        0.09500724985635
N            1.66358858679214       -1.81223718738491        0.03928929568115
C            0.59126273872761       -0.95223759961346       -0.02200877843284
C            1.12044321624144        0.34689673812065       -0.00197344210556
C            0.29417720420034        1.50359688784887       -0.04361093363289
O            0.67158244807369        2.67699785454281       -0.04767939856247
N           -1.06785368836468        1.13308022707328       -0.07881715155057
C           -2.03012545694410        2.23027096390992       -0.10039390261130
C           -1.59891863566588       -0.08510486744218       -0.09828865344222
O           -4.03277987567628       -3.17133506865869       -0.01630762551943
N           -0.74798580055428       -1.18990908505631       -0.08265363693137
C           -1.28914529090976       -2.41225619085632       -0.12915332442110
H            3.93375794471928        1.32980911256480        1.08976665870542
H            4.17802561761606        1.20468502388484       -0.66368080209727
H            2.87699249477108        2.23671800731191       -0.01409554808799
H            3.77841110689418       -1.49368237318199        0.15130625601256
H           -1.48197845652343        3.16957139131681       -0.04669466091514
H           -2.61483455003035        2.19716258093012       -1.01834654658138
H           -2.70959751753637        2.14666311409476        0.74595169812902
H           -0.64404774098353       -3.27282034073845       -0.12397100816128
H           -2.37257221835856       -2.52398842138340       -0.13105987930930
H           -4.94048249096481       -2.88209818629973        0.08790979212256
H            1.61716778929053       -2.82165745036668        0.04402078677730
