25
 energy: 32.396849916133 xtb: 6.6.1 (8d0f1dd)
C            3.30187506056769        1.24469185722889        0.11567536374309
N            2.35439366255874        0.16323877080764        0.04197765499085
C            2.70872522073075       -1.17676043416111        0.07491048975520
N            1.54635683935127       -1.90470880779410        0.05212145757886
C            0.43973543755501       -1.12648507079778        0.02368505268012
C            0.93645005892027        0.20096680341563        0.01623543709771
C            0.07817886930794        1.29815772598172       -0.06682713045354
O            0.40251053272272        2.48833522219299       -0.10734390403758
N           -1.35789444139208        0.90773067519532       -0.06659440565689
C           -2.17734181673679        2.11253400514794       -0.10028337311249
C           -1.86286092654540       -0.36966011843441        0.06380649315616
O           -3.01711804513862       -0.76298589438719        0.17772238225571
N           -0.93906090304030       -1.43286623618956        0.05685117928436
C           -1.77127575146068       -2.73365941313997       -0.01035158798139
H            3.81843837497484        1.27695320277816        1.08657826545378
H            4.07659914784193        1.14274974622959       -0.65615768630459
H            2.78704892288560        2.19400596430776       -0.02362566065334
H            3.69714533640204       -1.58708384844169        0.13541106941723
H           -1.50815249905366        2.97885276943596       -0.04890943040152
H           -2.73462017560240        2.18621483622651       -1.03141420867893
H           -2.83630941016016        2.16142139189254        0.75963650086831
H           -1.01645066206021       -3.47551110310249        0.24357834114622
H           -2.02419960032336       -2.91041636905486       -1.06326250049965
H           -2.89676588247971       -2.89979345139661        0.54811925003186
H            1.55640883389663       -2.90654314370587        0.05296782043667
