25
 energy: 48.069244736998 xtb: 6.6.1 (8d0f1dd)
C            3.31372438782681        1.25864222402659        0.11815611129467
N            2.36307598094916        0.17910037835479        0.04610947656393
C            2.72184367987559       -1.15757019448787        0.07854413311099
N            1.56772625601011       -1.89685855562685        0.06620442041874
C            0.45488206869497       -1.12808960346228        0.04490053121041
C            0.94477309038830        0.20489565791092        0.03028145873008
C            0.07493726090007        1.29595230665895       -0.05715964743783
O            0.41104302113531        2.48597347020820       -0.12015725637198
N           -1.35503770198492        0.89643368765176       -0.06825500694471
C           -2.16568110484249        2.10977564448182       -0.10822879139816
C           -1.84840532958071       -0.38281932100390        0.07904215773793
O           -2.99771143828858       -0.81992972453629        0.12814949152197
N           -0.91956348597342       -1.44031982374479        0.07108138374641
C           -1.76651340879765       -2.73916629157766       -0.04770717982892
H            3.84005992550355        1.28725790176017        1.08440330487433
H            4.08381863237052        1.16060148621425       -0.65972873195667
H            2.80124732448798        2.21005580878129       -0.01365531013949
H            3.71241394020651       -1.56696110241690        0.14665839621182
H           -1.48275192875143        2.96581770727777       -0.04865468420693
H           -2.71320188779498        2.20372536544873       -1.04271155432516
H           -2.83152119343913        2.17298262816252        0.74570568075280
H           -1.01094376098303       -3.49876986940663        0.12674111809055
H           -2.13144984611225       -2.84340587922798       -1.06396120213741
H           -2.98177165152758       -3.02004389111066        0.51825746547953
H            1.58791314949789       -2.89909326402468        0.06024614514941
