25
 energy: 0.208399960495 xtb: 6.6.1 (8d0f1dd)
C            3.26104328067317        1.19610204765590        0.09488639418625
N            2.32097007120119        0.12168530065733        0.03530165264484
C            2.63672294538129       -1.22160257847986        0.04492018168579
N            1.46080529110611       -1.92350087606487        0.01410674010470
C            0.41214094777684       -1.07527666585781       -0.01530149393218
C            0.92561719327150        0.22653472586725       -0.00219911559077
C            0.09446392600628        1.35428896772343       -0.02875689658042
O            0.43781112601058        2.54416182316844       -0.03692162448896
N           -1.31171196480513        0.98544730062136       -0.04405715776253
C           -2.21022596261543        2.12840089257694       -0.06856785195779
C           -1.85444686681859       -0.28100583636918       -0.04363828731656
O           -3.03588725217147       -0.58879093972380       -0.04916565812249
N           -0.94083534943495       -1.34375884068111       -0.02738062139014
C           -1.59222848207042       -2.64050432402412       -0.04539555236316
H            3.75061529909161        1.23833884826507        1.07431599078007
H            4.03349541078325        1.07145785957971       -0.66968172206657
H            2.72760277876742        2.13092088394528       -0.06978080898910
H            3.61695470217971       -1.63686906353943        0.07069925614279
H           -1.61150464066381        3.04216328204962       -0.03201101896230
H           -2.79661091933959        2.12363132791197       -0.98544275721314
H           -2.86766882683597        2.10327040142006        0.79586709300098
H           -1.08334851561230       -3.28865383569258        0.66432129188194
H           -1.45423408526655       -3.09760305128643       -1.02242662778721
H           -2.70703550752046       -2.53544560547717        0.17385821626309
H            1.42423092349365       -2.92545401852381        0.01599920452697
