25
 energy: 36.683800043807 xtb: 6.6.1 (8d0f1dd)
C            3.56999239635153        2.74503036336442        0.18867583363086
N            2.36558296301881       -0.55321954968576        0.00898068278708
C            2.43645903154616       -1.84573980777953        0.01540633336336
N            1.21039158160597       -2.47440883151762        0.01504383298863
C            0.29131848333131       -1.46023903755889       -0.02232288095364
C            1.02811752480472       -0.27066931039182       -0.02679007408100
C            0.31638112466964        0.98984389968232       -0.06591867055796
O            0.77744086713545        2.10256620370527       -0.12514505615576
N           -1.06631539141852        0.83144522905851       -0.04127553463731
C           -1.84320398918239        2.06479324492890       -0.02172245433992
C           -1.79661549146948       -0.33446009932316       -0.06011773375635
O           -3.00897989849146       -0.31111077188756       -0.08030559441565
N           -1.07690269761860       -1.53502634098614       -0.05971816040069
C           -1.88455635138229       -2.74666769489905       -0.08460640288312
H            4.04022912579961        2.93829260836329        1.10268015915313
H            4.00376706529678        2.87468532080451       -0.75950250898226
H            2.52532563037952        2.72773714781199        0.16216821480095
H            3.35495418185150       -2.39310132476767        0.05134715358241
H           -1.13224266612830        2.88552281528330       -0.01704084248699
H           -2.46736224205322        2.13959840564646       -0.90882499246113
H           -2.45481823253626        2.10112351123124        0.87725154236284
H           -1.75251409815556       -3.36246111034442        0.80471338340399
H           -1.72624370385915       -3.34693346403283       -0.98093768527198
H           -2.93854308716734       -2.43707126761081       -0.09573700257405
H            1.05733055492670       -3.47445911858530        0.02329359657172
