25
 energy: 42.390929623425 xtb: 6.6.1 (8d0f1dd)
C            3.34296360808707        2.17037638020493        0.14795354649428
N            2.41513295770918       -0.29088089123235        0.03298271005775
C            2.54809603285487       -1.58156100775424        0.04394527594219
N            1.35820742124512       -2.27678767393023        0.01597785863420
C            0.38494319983830       -1.32040805095574       -0.01895994753154
C            1.05359819635073       -0.08976229191850       -0.01142985890266
C            0.26482483446732        1.12197103804124       -0.06252271654413
O            0.64038341848893        2.26015395256467       -0.14683622761566
N           -1.11766862860474        0.88704965149933       -0.04864934817023
C           -1.97539202637790        2.07565876845985       -0.03617947335134
C           -1.76367691032924       -0.31549922851075       -0.06425238076683
O           -2.97426575468695       -0.35354336964523       -0.08129421716598
N           -0.97524441725804       -1.47490469727964       -0.05933444493711
C           -1.73911580954111       -2.70732273420062       -0.07912037213888
H            3.81033478957739        2.31711987664453        1.06319196061818
H            3.84976555735498        2.18629493500635       -0.76339052716888
H            2.32458769375796        2.44635130017795        0.13131732142441
H            3.47779008794123       -2.12169679405054        0.04089878310817
H           -1.32804635175824        2.94181555613251       -0.02392239221888
H           -2.60044717290073        2.11392973451820       -0.92522968673093
H           -2.58457895167802        2.09283208725288        0.86184672772889
H           -1.58052381567903       -3.31399190469858        0.81261479956936
H           -1.55228509456738       -3.29982276102428       -0.97448440747611
H           -2.79230154956068       -2.38435050342460       -0.09447415365009
H            1.24848235894807       -3.28133287131918        0.03124014849947
