25
 energy: 0.000000000000 xtb: 6.6.1 (8d0f1dd)
C            3.23720163006194        1.16630919979326        0.08434469647475
N            2.29877817382611        0.07527477071623        0.03981603040599
C            2.58028210190900       -1.21425402444508        0.03006176031096
N            1.43813958087363       -1.93419271955128        0.00098261760884
C            0.39035688448383       -1.05887472636071       -0.00790371836672
C            0.93510056364412        0.21347819449412        0.01709077491437
C            0.09450143893243        1.40504303904423       -0.00410947031874
O            0.49712751527797        2.54126714362870       -0.00342325688240
N           -1.25076640035757        1.06271879480407       -0.03085478223738
C           -2.21907211982101        2.15522099834493       -0.05001256985998
C           -1.81739487048744       -0.20012725993278       -0.04692818574614
O           -2.99983886758376       -0.37846417018721       -0.07008878229737
N           -0.92618586207120       -1.30210215599479       -0.03682761578324
C           -1.46982264913417       -2.64643102187190       -0.06029820460571
H            3.71247264356769        1.21471455160235        1.06488849150277
H            4.00791497605742        1.03430808813993       -0.67357694370751
H            2.69910007168542        2.09770118228144       -0.09130154882931
H            3.56654120610678       -1.63682992603973        0.04233140067262
H           -1.67107961066214        3.09322851271934       -0.02552706933167
H           -2.82428953597071        2.09428624779827       -0.95318082946668
H           -2.87644029173232        2.07745725625962        0.81450067533302
H           -1.17061996399332       -3.19584890659852        0.83242232437030
H           -1.14560257411436       -3.17511610292205       -0.95688275822323
H           -2.55549792440841       -2.55659984320617       -0.07459039797972
H            1.38130855184625       -2.94313852034425       -0.01389874181052
25
 energy: -3.430567951397 xtb: 6.6.1 (8d0f1dd)
C            3.23735771750555        1.18300451743003        0.08902866842458
N            2.32741361970713        0.08004496192331        0.03856672194433
C            2.64117414786777       -1.25939598626344        0.02690904608399
N            1.44319713521656       -1.94066608902731        0.00048277221323
C            0.40606975986077       -1.05425183519656       -0.00693415876955
C            0.94176554841593        0.22086765560527        0.01693033987646
C            0.09847549181264        1.39751599799223       -0.00198165701551
O            0.48705203776420        2.56616194791543        0.00038438599864
N           -1.26705720499582        1.05710589909444       -0.03055412027503
C           -2.23596616949577        2.15112614147026       -0.05212750429373
C           -1.82642848047634       -0.19490570537388       -0.04681760385544
O           -3.02327074879699       -0.37924773290128       -0.07063814854734
N           -0.93109299959473       -1.29317860017499       -0.03549394447715
C           -1.47804754458325       -2.63207642381199       -0.05795018362360
H            3.70152173210151        1.24318398428340        1.07608960544175
H            4.01016133280487        1.05480331768075       -0.66776710802756
H            2.67978723917118        2.10216184331754       -0.09598668964310
H            3.65779822058536       -1.75135052981175        0.02444198584046
H           -1.68549843065044        3.08900257138074       -0.02772619954602
H           -2.84352066973749        2.09669813290958       -0.95579861141480
H           -2.89848864700122        2.08128278669248        0.81075134249673
H           -1.17685584480057       -3.18292808731205        0.83470818370221
H           -1.15212087097107       -3.16380866346999       -0.95362790449570
H           -2.56411409350737       -2.54075725901618       -0.07221349848927
H            1.36290238973379       -2.94136424316402       -0.01564182340132
25
 energy: 1.982491867168 xtb: 6.6.1 (8d0f1dd)
C            3.23396893523705        1.19652352171798        0.09440780543511
N            2.35468528466150        0.07213487350560        0.03448716399217
C            2.69646064426262       -1.30290643967288        0.02240712767647
N            1.44928651035986       -1.94215225286193       -0.00181620997719
C            0.42282097877870       -1.05142907439292       -0.00649046339189
C            0.95267318600671        0.22437249686103        0.01658115833413
C            0.10677425308340        1.38577520516865        0.00126899259097
O            0.46694086592504        2.57156417281970        0.00642414155389
N           -1.27926223484797        1.05519699741614       -0.02977135734693
C           -2.25079896113756        2.14932466247453       -0.05493343962765
C           -1.82517794667287       -0.18894781286982       -0.04565107700244
O           -3.02566587703004       -0.38160408670987       -0.07050187341509
N           -0.92974263276118       -1.28189620487356       -0.03326179923816
C           -1.48527740943563       -2.61467044102609       -0.05402882013076
H            3.68294629635733        1.28541436989362        1.08857700536588
H            4.01931229152328        1.08846986878972       -0.65306297551143
H            2.65383959726441        2.10150737858762       -0.10419151193140
H            3.73107419564832       -1.87241189938681       -0.00159651607362
H           -1.70455567461384        3.09008851221256       -0.03068275877691
H           -2.86129511363467        2.09593412303503       -0.95832199598869
H           -2.92044166229579        2.08285064853477        0.80438056501259
H           -1.18769403096042       -3.16785042055974        0.83912663620643
H           -1.16370091504996       -3.15108718051867       -0.94925423343304
H           -2.57148919359792       -2.51634239844072       -0.06798148386913
H            1.34653328086586       -2.93883001753192       -0.01908018430603
25
 energy: 5.615497963212 xtb: 6.6.1 (8d0f1dd)
C            3.22831232396011        1.20278568734382        0.09660866256424
N            2.36468987348378        0.06468824053388        0.02853248018047
C            2.71616621952324       -1.32160921842942        0.02008001082887
N            1.45433151407502       -1.94459837788364       -0.00602314084671
C            0.43047156463363       -1.05408472599568       -0.00839604668859
C            0.95875606506288        0.22365062460664        0.01459416679038
C            0.11423666089054        1.38341218497284        0.00268316790904
O            0.45915068376880        2.57112801714282        0.01039118328419
N           -1.28060889425171        1.05813983783384       -0.02906516772017
C           -2.25482262139823        2.14990920506389       -0.05590012573801
C           -1.82088277759601       -0.18660277627253       -0.04455695707574
O           -3.02084066011349       -0.38346904447357       -0.06920411934106
N           -0.92560160378298       -1.27807532129451       -0.03228725444025
C           -1.48890456136281       -2.60734014916623       -0.05110987285507
H            3.66349572195018        1.30931576945875        1.09603956997081
H            4.02631593768416        1.10963278394412       -0.63977012999297
H            2.63675113151989        2.09887222879247       -0.11253909123208
H            3.75858311067640       -1.92540586326468       -0.01317667463829
H           -1.71419442067096        3.09339479780873       -0.03163039601722
H           -2.86563182883992        2.09289042475927       -0.95941464084011
H           -2.92710751377216        2.08102028627772        0.80167805321977
H           -1.19554425954874       -3.16087488701976        0.84288490330597
H           -1.17294373308722       -3.14599637037845       -0.94665170697277
H           -2.57484893007531       -2.50058282756156       -0.06428436208787
H            1.34288566520714       -2.94117192462673       -0.02244861541953
25
 energy: 6.415834482572 xtb: 6.6.1 (8d0f1dd)
C            3.22529545146850        1.20427101171132        0.09688606992045
N            2.36586061712445        0.06263500964949        0.02418816786119
C            2.71828432416257       -1.32437758132521        0.02019475884130
N            1.45652589308480       -1.94517497038261       -0.00812892220529
C            0.43168350062669       -1.05603471407031       -0.00975064472538
C            0.96008793184095        0.22294354930074        0.01329061594784
C            0.11769869362966        1.38457445362491        0.00268514967475
O            0.45742078014913        2.57105111832112        0.01179592150482
N           -1.27940358055889        1.05990189517550       -0.02887897032897
C           -2.25446328857257        2.15028960903620       -0.05578627109912
C           -1.81924357235392       -0.18617312135096       -0.04414285146652
O           -3.01862125067394       -0.38346850925874       -0.06842048448723
N           -0.92375794665551       -1.27776675582806       -0.03209507913517
C           -1.48995744674224       -2.60642892602420       -0.05015803338261
H            3.65322937361195        1.31436996165646        1.09854947675049
H            4.02849587522114        1.11448411947036       -0.63356086899526
H            2.63236146295314        2.09762080915877       -0.11721124486804
H            3.76461198172669       -1.93575385804948       -0.01552246192252
H           -1.71594441830129        3.09462881966980       -0.03134545153870
H           -2.86502483717050        2.09182225485019       -0.95946442020620
H           -2.92687101788050        2.07991749181561        0.80163168027075
H           -1.19797816935504       -3.15971601266309        0.84406099699504
H           -1.17605346104114       -3.14555010969926       -0.94574757055245
H           -2.57575302626618       -2.49697153571277       -0.06300168361764
H            1.34373079790829       -2.94206540690374       -0.02303398308823
25
 energy: 6.645392958657 xtb: 6.6.1 (8d0f1dd)
C            3.22396880536106        1.20454331762785        0.09694417404802
N            2.36579021908487        0.06202487534254        0.02004146747000
C            2.71724322946917       -1.32385022247612        0.02108032275078
N            1.45763263634406       -1.94492422377504       -0.00916583167253
C            0.43140721794169       -1.05713564242933       -0.01044782469169
C            0.96035791433558        0.22251078023155        0.01254190114929
C            0.11995238617709        1.38574850751317        0.00243214888079
O            0.45638206826763        2.57154151784778        0.01256698211888
N           -1.27843945487823        1.06043703676908       -0.02887378978935
C           -2.25372188593734        2.15016791923753       -0.05556193559023
C           -1.81885388988983       -0.18616033451814       -0.04391008396913
O           -3.01786791777721       -0.38310395938419       -0.06798510979085
N           -0.92303147159036       -1.27790239601779       -0.03182970260966
C           -1.49045418868733       -2.60664270589649       -0.04976654674325
H            3.64686839318679        1.31520709096458        1.10014756098166
H            4.03023253219656        1.11520773036113       -0.62951723619122
H            2.63171608585041        2.09690361162834       -0.12046126556767
H            3.76694002413844       -1.93754969263546       -0.01713538992448
H           -1.71606908186381        3.09485530091595       -0.03092127653792
H           -2.86422599794455        2.09157442216847       -0.95928480515708
H           -2.92602148688311        2.07935781233227        0.80192404647440
H           -1.19884946954203       -3.15967533068402        0.84449114185579
H           -1.17710658874888       -3.14567875501752       -0.94535034883406
H           -2.57615356121187       -2.49638339801665       -0.06255838636882
H            1.34451815053740       -2.94204465991748       -0.02236631614438
25
 energy: 6.649113337729 xtb: 6.6.1 (8d0f1dd)
C            3.22406100261828        1.20429283519134        0.09697691548106
N            2.36569304907041        0.06211381076510        0.01727825515007
C            2.71597253281261       -1.32273835745943        0.02218952825467
N            1.45776869792067       -1.94450273236933       -0.00931111480214
C            0.43084788400604       -1.05724701887935       -0.01052111135389
C            0.96018596549234        0.22248922274744        0.01230422798187
C            0.12078311416311        1.38611233594440        0.00212868261138
O            0.45591118545496        2.57206421187778        0.01270404507991
N           -1.27835319475021        1.06011421254427       -0.02896240812165
C           -2.25344054577218        2.14991425095721       -0.05541743128146
C           -1.81921642535696       -0.18622815302072       -0.04384130885070
O           -3.01814021140261       -0.38298280749982       -0.06787428963812
N           -0.92314494731245       -1.27800531797565       -0.03153811982593
C           -1.49052542724720       -2.60697318504186       -0.04973557126084
H            3.64500990706155        1.31435753823373        1.10088275221222
H            4.03139814813238        1.11447251079151       -0.62805234823909
H            2.63264564196742        2.09680733188759       -0.12149255686300
H            3.76760151762256       -1.93640116725389       -0.01821922720636
H           -1.71572495286944        3.09460852769443       -0.03066714626946
H           -2.86404630515412        2.09176957626068       -0.95909990451836
H           -2.92567047118302        2.07930381431436        0.80215674248681
H           -1.19879299666992       -3.15998617321019        0.84446677802120
H           -1.17689815240171       -3.14576513363512       -0.94534788173944
H           -2.57619400507375       -2.49689811727955       -0.06261977540380
H            1.34448365680750       -2.94166341341292       -0.02135383575765
25
 energy: 6.627431297096 xtb: 6.6.1 (8d0f1dd)
C            3.22469202814734        1.20385281733268        0.09706134209754
N            2.36583659750542        0.06234467211499        0.01406341935662
C            2.71481319521349       -1.32165249369507        0.02408166356039
N            1.45754343991260       -1.94411322789375       -0.00913710805898
C            0.43032280433700       -1.05691052654002       -0.01039017581108
C            0.95986163347265        0.22274794685539        0.01208723831673
C            0.12117661928170        1.38606614461294        0.00167907777131
O            0.45565127572722        2.57253449793570        0.01246678059055
N           -1.27887044200184        1.05949707447525       -0.02910393602999
C           -2.25352015538138        2.14972052186407       -0.05530128461942
C           -1.81987573524690       -0.18621505138142       -0.04381503820139
O           -3.01877845620432       -0.38320388812153       -0.06786287590009
N           -0.92356144159439       -1.27805123778791       -0.03109388167238
C           -1.49039460412378       -2.60723426377512       -0.04980405538837
H            3.64474834694625        1.31268782471018        1.10146220174126
H            4.03254237073180        1.11372576395392       -0.62745681143044
H            2.63401931425430        2.09702469017199       -0.12133065637052
H            3.76818647705293       -1.93473426773340       -0.01956769719638
H           -1.71532390684136        3.09425136264919       -0.03047409473943
H           -2.86429135217569        2.09217578378279       -0.95891325094948
H           -2.92569343408439        2.07948015409149        0.80236915082890
H           -1.19843779141792       -3.16043343406983        0.84427940122479
H           -1.17624054190591       -3.14572156459935       -0.94551072219956
H           -2.57606189268654       -2.49760452146148       -0.06282816095157
H            1.34387031901795       -2.94120617531970       -0.01992662982174
25
 energy: 6.619438171183 xtb: 6.6.1 (8d0f1dd)
C            3.22476663849148        1.20382412738927        0.09709854043212
N            2.36597936850185        0.06231116556806        0.01387569596482
C            2.71509751083421       -1.32195211720078        0.02469717464805
N            1.45744008002105       -1.94429220483123       -0.00902021382495
C            0.43052880877970       -1.05676449739678       -0.01038436867097
C            0.95985066237096        0.22287272684263        0.01196958726793
C            0.12088940370088        1.38590679475901        0.00156806725270
O            0.45587255228398        2.57236389706481        0.01224795524509
N           -1.27911456257390        1.05956796214155       -0.02910091720130
C           -2.25372865330925        2.14986743479775       -0.05532630744113
C           -1.81983112574585       -0.18611875229428       -0.04383853255035
O           -3.01874326936978       -0.38344533375260       -0.06790717557280
N           -0.92355427784604       -1.27804696885702       -0.03106302337563
C           -1.49028469386798       -2.60712374450895       -0.04981713521648
H            3.64552790746403        1.31230917044542        1.10133070883528
H            4.03225887275160        1.11422547060988       -0.62799259656944
H            2.63384013926189        2.09713501844983       -0.12049919547856
H            3.76808225444874       -1.93484585200418       -0.01970336571098
H           -1.71541152365466        3.09431657289048       -0.03053142951146
H           -2.86448258214206        2.09222963850066       -0.95894100095853
H           -2.92589737139169        2.07957767380787        0.80233289930543
H           -1.19838319895152       -3.16043484258057        0.84424295263525
H           -1.17619051680197       -3.14563743151719       -0.94555808638276
H           -2.57597570666595       -2.49748571456300       -0.06282427104550
H            1.34367795134651       -2.94133159158863       -0.01982206592855
