25
 energy: 0.000000000000 xtb: 6.6.1 (8d0f1dd)
C            3.23720132972391        1.16630909158653        0.08434468864950
N            2.29877796055224        0.07527476373246        0.03981602671198
C            2.58028186251803       -1.21425391179017        0.03006175752192
N            1.43813944744728       -1.93419254010258        0.00098261751768
C            0.39035684826767       -1.05887462812143       -0.00790371763344
C            0.93510047688824        0.21347817468824        0.01709077332874
C            0.09450143016486        1.40504290868848       -0.00410946993748
O            0.49712746915594        2.54126690785742       -0.00342325656480
N           -1.25076628431515        1.06271869620815       -0.03085477937476
C           -2.21907191394203        2.15522079838987       -0.05001256521996
C           -1.81739470187490       -0.20012724136556       -0.04692818139228
O           -2.99983858926755       -0.37846413507442       -0.07008877579474
N           -0.92618577614240       -1.30210203518959       -0.03682761236648
C           -1.46982251276835       -2.64643077634382       -0.06029819901142
H            3.71247229913541        1.21471443890471        1.06488839270555
H            4.00791460421487        1.03430799217987       -0.67357688121503
H            2.69909982127087        2.09770098766290       -0.09130154035862
H            3.56654087521359       -1.63682977417947        0.04233139674524
H           -1.67107945562430        3.09322822573871       -0.02552706696334
H           -2.82428927394145        2.09428605349656       -0.95318074103337
H           -2.87644002486466        2.07745706351925        0.81450059976605
H           -1.17061985538665       -3.19584861009707        0.83242224714061
H           -1.14560246782873       -3.17511580834413       -0.95688266944647
H           -2.55549768731684       -2.55659960601237       -0.07459039105944
H            1.38130842369251       -2.94313824728853       -0.01389874052104
25
 energy: -1.500473845149 xtb: 6.6.1 (8d0f1dd)
C            3.23432625562878        1.18471780099867        0.08926862562492
N            2.33140164961024        0.07641152322106        0.03899114107153
C            2.65441222825180       -1.26647182346279        0.02679181966339
N            1.44753631719715       -1.93914278147682        0.00069647040658
C            0.40747366325767       -1.05297345090478       -0.00658374216245
C            0.94323172825070        0.22115920422778        0.01746171571864
C            0.09595585112972        1.39869807221177       -0.00134991593528
O            0.48215689480062        2.56797590915189        0.00137205618424
N           -1.27003094816723        1.05936694204739       -0.03056264809914
C           -2.24020665352646        2.15338454592852       -0.05256308495322
C           -1.82821376231966       -0.19306471405916       -0.04679223308229
O           -3.02499362034710       -0.37777163146296       -0.07069065755527
N           -0.93144266780480       -1.29109328743707       -0.03527854163081
C           -1.47979335679604       -2.62990083905171       -0.05764517922345
H            3.69563579076776        1.24666419191331        1.07715377343932
H            4.00773531517754        1.05616150349530       -0.66598829097515
H            2.67639094683722        2.10399299738378       -0.09773493155897
H            3.68887801648614       -1.78209516142340        0.02074531515326
H           -1.69191230319339        3.09267327313581       -0.02815485205869
H           -2.84802735062956        2.09852154016447       -0.95614826117669
H           -2.90337367223077        2.08323188980829        0.80991082537174
H           -1.17867998042009       -3.18066846011334        0.83501723033957
H           -1.15401474579638       -3.16179180559643       -0.95321088511650
H           -2.56617527310554       -2.54013364188263       -0.07190448254084
H            1.36394398191416       -2.93882300807289       -0.01576735470989
25
 energy: 10.616174928397 xtb: 6.6.1 (8d0f1dd)
C            3.22675528390635        1.20078383673114        0.09467156032567
N            2.36237383544263        0.06478315235680        0.03507831371081
C            2.72741121232554       -1.31893086125091        0.02281114832223
N            1.45860241218795       -1.93833664458464       -0.00148718978689
C            0.42577314760135       -1.04877247762319       -0.00598008067875
C            0.95489954112665        0.22560956576676        0.01768859275430
C            0.10133575537961        1.38867148468951        0.00248387762285
O            0.45452169892667        2.57632858190273        0.00856909335697
N           -1.28627305377939        1.06049927312843       -0.02989499177590
C           -2.26036083293511        2.15480054930664       -0.05563496442557
C           -1.82928736443023       -0.18469263436829       -0.04559862133681
O           -3.02985817179000       -0.37817451109888       -0.07053024812851
N           -0.93101791358121       -1.27721741566355       -0.03302103077670
C           -1.48927574994923       -2.61000602805571       -0.05364026762929
H            3.67003211416541        1.29384797754989        1.09064076868852
H            4.01369363408247        1.09154809491517       -0.64954465293961
H            2.64640404802477        2.10590884541107       -0.10855311403143
H            3.80513943233079       -1.94569383909475       -0.00808814922618
H           -1.71876695524151        3.09851798722509       -0.03135264627055
H           -2.87157547091381        2.10056387501695       -0.95884944459824
H           -2.93123306006297        2.08757763147115        0.80303059424914
H           -1.19149359077313       -3.16304605733145        0.83943840429198
H           -1.16769979159417       -3.14664810624815       -0.94864312061405
H           -2.57621331274839       -2.51569830741545       -0.06757167067726
H            1.34832745727148       -2.93319518399239       -0.01898824823220
25
 energy: 21.977229882199 xtb: 6.6.1 (8d0f1dd)
C            3.21772036381298        1.21012523530505        0.09682222583708
N            2.37465276156065        0.05609089948018        0.02828092212850
C            2.76158324177480       -1.34636885945831        0.02170746866112
N            1.46698490285104       -1.94013077672868       -0.00612155490478
C            0.43506137289886       -1.05103175295437       -0.00826713765971
C            0.96060989867331        0.22639854608512        0.01564301408386
C            0.10733711430662        1.38761307412176        0.00419918558288
O            0.44019048525313        2.57828215411008        0.01366884461638
N           -1.29147476961694        1.06603697827716       -0.02927428805778
C           -2.26951136815630        2.15768277529966       -0.05662206147510
C           -1.82686537200597       -0.18036420557580       -0.04448689562994
O           -3.02716080594558       -0.37899942615452       -0.06900444953693
N           -0.92774493540150       -1.27101516426719       -0.03222368314341
C           -1.49543890111718       -2.59975652113277       -0.05063710130984
H            3.64398073070873        1.32430742931485        1.09915595580980
H            4.01937284224475        1.11714478959698       -0.63425257462280
H            2.62465965132366        2.10493169125404       -0.11980869694738
H            3.87902454899852       -2.04121756053858       -0.02116909096583
H           -1.73530264626170        3.10502663874945       -0.03229221467279
H           -2.88160448920441        2.09974548093964       -0.95982764055103
H           -2.94364772013769        2.08788502676846        0.80006050442337
H           -1.20189198861597       -3.15298134923689        0.84333381021097
H           -1.17971702574786       -3.13863916001190       -0.94598060074708
H           -2.58231534643846       -2.49739921442752       -0.06368255051914
H            1.34371175921499       -2.93433794007191       -0.02218747841584
25
 energy: 28.715153492940 xtb: 6.6.1 (8d0f1dd)
C            3.21309670052142        1.21351654156248        0.09694172593669
N            2.37410753051179        0.05652067050632        0.02391077136302
C            2.76802232452086       -1.35162413587829        0.02534883416157
N            1.46943601357914       -1.93927097758135       -0.00751757068480
C            0.43541525102382       -1.05221198520785       -0.00912419550563
C            0.95933260214978        0.22800976093279        0.01517602979909
C            0.10895558557948        1.39115752072642        0.00424519136024
O            0.43334041773069        2.58011583949643        0.01537247831341
N           -1.29345694161153        1.06977244420131       -0.02929568339217
C           -2.27244619921092        2.15962557693930       -0.05662776116785
C           -1.82747658582659       -0.17895804078083       -0.04414385639880
O           -3.02701931815581       -0.37858436081640       -0.06847762021383
N           -0.92728495247098       -1.26925570048526       -0.03202421714926
C           -1.49750837359233       -2.59788561605524       -0.04999365000100
H            3.63208693263831        1.33040687247889        1.10094441354175
H            4.01962020556654        1.12281032034311       -0.62793802333730
H            2.62072305847223        2.10604827289542       -0.12506440077785
H            3.92380405802042       -2.08211433276254       -0.02651037053891
H           -1.74018147211719        3.10751313284537       -0.03209193763794
H           -2.88426976829202        2.10025188461048       -0.96005885718169
H           -2.94657656081040        2.08828029555720        0.80002691820311
H           -1.20501825483404       -3.15059218374716        0.84412999444543
H           -1.18307682674915       -3.13671125058035       -0.94528751505634
H           -2.58439822997483       -2.49418721935983       -0.06300829953300
H            1.34298710830379       -2.93360454109637       -0.02189848635336
25
 energy: 40.296133273542 xtb: 6.6.1 (8d0f1dd)
C            3.20878028256501        1.21697252192435        0.09693154714800
N            2.36659610309415        0.06302844543736        0.01829296549975
C            2.76347679546445       -1.34862097203454        0.04011111982602
N            1.46915030160969       -1.93520279271819       -0.00790583586506
C            0.43056856042906       -1.05221129512450       -0.01004034275017
C            0.95300256675556        0.23162753001686        0.01512555862332
C            0.10878655161383        1.39869675508861        0.00270966845916
O            0.42409067936581        2.58413367697635        0.01647932104370
N           -1.29683955845095        1.07371902668324       -0.02990035583361
C           -2.27596100787478        2.16156265651814       -0.05636951091986
C           -1.83148421889789       -0.17794387816815       -0.04418191893373
O           -3.02964482516250       -0.37730145559889       -0.06801463191179
N           -0.92927587585343       -1.26750002403591       -0.03228002247264
C           -1.49978196988190       -2.59775462416072       -0.05013283525796
H            3.62238360358852        1.33140400951452        1.10160132275731
H            4.01811606896925        1.12289929053900       -0.62278820330190
H            2.62219465136294        2.10993972078511       -0.12980916584189
H            4.00557807184806       -2.13979052295310       -0.03741175145221
H           -1.74441578989550        3.10933384738797       -0.03156737845479
H           -2.88745274484995        2.10202854552346       -0.95992145169663
H           -2.94931430835635        2.08948122317050        0.80074118943690
H           -1.20669954124920       -3.14902187676424        0.84403006732509
H           -1.18466937847086       -3.13523018810060       -0.94530991355909
H           -2.58671570495783       -2.49513813292004       -0.06326490048098
H            1.34174499220735       -2.93008269824261       -0.02009062919235
25
 energy: 56.795258525860 xtb: 6.6.1 (8d0f1dd)
C            3.19825847540108        1.22664066055500        0.09696231012793
N            2.33676509178517        0.08878213987401        0.01226682455374
C            2.72835891574203       -1.32457647761153        0.13125249166789
N            1.46100556711161       -1.91928617061643       -0.00426318492818
C            0.40979805968413       -1.04792247390935       -0.01575103049909
C            0.92957284637791        0.24384595328497        0.01259964292857
C            0.10418141458613        1.42084096238901       -0.00909051614703
O            0.40008163390224        2.59671981543007        0.01597737512274
N           -1.30814992154876        1.08226139021421       -0.03283793056096
C           -2.28567763503847        2.16611155788453       -0.05482897847269
C           -1.84674716633825       -0.17564622673008       -0.04561381872453
O           -3.04100272148655       -0.37320525800833       -0.06603268193830
N           -0.93938386877944       -1.26249718096333       -0.03736863623295
C           -1.50576376007613       -2.59907698846771       -0.05238859399899
H            3.60542820479423        1.33080537353454        1.10126339751917
H            4.01015370642029        1.11479733832121       -0.61459401728820
H            2.62985566975503        2.12463867329809       -0.13941274312712
H            4.28184035892199       -2.32160591966126       -0.09984162684256
H           -1.75359348967096        3.11287436126901       -0.02957800074460
H           -2.89650046431100        2.10775600544282       -0.95843403208551
H           -2.95603078610847        2.09325975859412        0.80407379699491
H           -1.20796516459855       -3.14520872972231        0.84207347446539
H           -1.18683948706558       -3.13301378689643       -0.94686994064136
H           -2.59270245988580       -2.50194903420480       -0.06485833008444
H            1.33727128539860       -2.91631695455600       -0.01767133886924
25
 energy: 58.044211442193 xtb: 6.6.1 (8d0f1dd)
C            3.18282380517809        1.23466000449337        0.10093641887962
N            2.28757664654522        0.11861233204284        0.01473056731363
C            2.65618269815804       -1.26965809757322        0.20586758612236
N            1.44577225824833       -1.88809404700598       -0.00135070980091
C            0.37827361029980       -1.03528436834945       -0.02411856703760
C            0.89971304506080        0.25820221671837        0.00733935813138
C            0.09326691547769        1.44585213893354       -0.01652409203658
O            0.37882367291580        2.60145134536946        0.01650833509338
N           -1.31788274008526        1.09246136434268       -0.03406390835081
C           -2.29420493871715        2.17061975969101       -0.05573489013098
C           -1.86239607226579       -0.17494453174030       -0.04657410084210
O           -3.05092594107235       -0.36877400955831       -0.06538377458904
N           -0.95349102562217       -1.25544035714690       -0.04081642202480
C           -1.51062016892076       -2.60047686183466       -0.05263352885743
H            3.59417345393975        1.32518070215045        1.09967469982144
H            3.99458910834421        1.10593560621252       -0.60761223831689
H            2.63422612260787        2.13942143321151       -0.13998417204299
H            4.63358434064360       -2.56064855041414       -0.16721713398340
H           -1.76194900960138        3.11660553640285       -0.03038440534860
H           -2.90204165809297        2.10973937892251       -0.96028676145845
H           -2.96222161833452        2.09544445462928        0.80372518131909
H           -1.20768384052593       -3.14141308813674        0.84202139157061
H           -1.18684179525694       -3.13066931471749       -0.94613632079289
H           -2.59693573824372       -2.50775623389017       -0.06493315641871
H            1.34040317429226       -2.89199802400907       -0.01001544402475
25
 energy: 54.081587746192 xtb: 6.6.1 (8d0f1dd)
C            3.17382592002514        1.22567721447595        0.11308009585451
N            2.23753812192760        0.12506135486925        0.05106230733591
C            2.54325398792938       -1.16756280348137        0.11501724737184
N            1.42062235895455       -1.84749414370438        0.01031942149853
C            0.34630252419390       -1.00616717860634       -0.02804114953549
C            0.88355784332458        0.26255712093928       -0.00002970195248
C            0.06377399791501        1.44760904599982       -0.00435402989624
O            0.38878630367142        2.59288764606933        0.01617301879207
N           -1.31654772958514        1.08925157605768       -0.03341524737427
C           -2.29271875887365        2.16963293927584       -0.06100189849280
C           -1.86820391222914       -0.17961152672801       -0.04987964613726
O           -3.05653599735860       -0.36520983522985       -0.06925710958049
N           -0.97277017553393       -1.25128275507308       -0.03823995160551
C           -1.50980714418120       -2.60189188013250       -0.05005440361501
H            3.61841790603127        1.30805289342959        1.10057264022409
H            3.97321438251357        1.08697431412986       -0.61733671700173
H            2.63373874203471        2.14387070195550       -0.11672200226820
H            4.87928426412179       -2.70775749487347       -0.16028380382447
H           -1.75816115407828        3.11650488012973       -0.03577876200060
H           -2.89808731779963        2.10673045431362       -0.96591962254259
H           -2.96065656473223        2.09451479145489        0.79721427875963
H           -1.20204199194963       -3.14324494678698        0.84449994247513
H           -1.17951971906725       -3.13296490077445       -0.94258501282260
H           -2.59494459665675       -2.51385973028259       -0.06355924236382
H            1.35989301437499       -2.86324894868332        0.01555326089642
25
 energy: 52.851094095633 xtb: 6.6.1 (8d0f1dd)
C            3.16693580923858        1.23316386685956        0.10374200962264
N            2.24001914105994        0.13178355169273        0.05333808005408
C            2.57579951090939       -1.16435701682535        0.11348031844265
N            1.41341827061265       -1.84186176856391        0.00965826173891
C            0.33725627056637       -0.99433907005023       -0.02681056494607
C            0.86747200582082        0.27701349091096       -0.00100534883035
C            0.03882892504093        1.44968257361067       -0.00778796144158
O            0.36374605761648        2.61522947815915        0.01547371557004
N           -1.33805754498673        1.09181178372965       -0.03537978874416
C           -2.30690661204701        2.17855214706914       -0.05726319025288
C           -1.88538963324350       -0.17361143850420       -0.05000062636685
O           -3.07968652301947       -0.35625595089401       -0.06834738973309
N           -0.99407637855367       -1.24587633694506       -0.04057354429431
C           -1.51687986110685       -2.60018955788015       -0.05453319719404
H            3.61472043145501        1.30226574273353        1.09319724619165
H            3.95824956002632        1.07095491640655       -0.62929648904330
H            2.64000341708329        2.16114888008698       -0.12111209105093
H            5.09153468583368       -2.83819028024060       -0.11173486832382
H           -1.76276481368552        3.12090127341480       -0.03213006550887
H           -2.91178159369219        2.11890366686159       -0.96256952305335
H           -2.97033815049894        2.10470874320176        0.80460674193511
H           -1.20002287909405       -3.14102526919857        0.83872151478801
H           -1.17803557078829       -3.13005638553737       -0.94606672028873
H           -2.60368254975943       -2.53078692423617       -0.06722077404139
H            1.35185233018468       -2.85054132711743        0.00664816696514
25
 energy: 52.474232591609 xtb: 6.6.1 (8d0f1dd)
C            3.16251285052349        1.23456872638510        0.09843275056575
N            2.23579960007750        0.13326914359601        0.05347988746937
C            2.57528260098551       -1.15445203329181        0.07566548746186
N            1.39969726137022       -1.84453469119517        0.00543815851201
C            0.33387131215234       -0.98954518124019       -0.01846277188122
C            0.85970737824557        0.28173259055158        0.00466565549497
C            0.02601151721600        1.44530280495422        0.00121260651153
O            0.37711238831683        2.60944907938366        0.01248425077706
N           -1.33895906332689        1.09380350410659       -0.03176978087273
C           -2.30872030844228        2.18002201441810       -0.05877932646627
C           -1.88380624331444       -0.17129390958129       -0.04587849767245
O           -3.08058712035009       -0.35242649993951       -0.06946728145248
N           -0.99995540886208       -1.24644297969160       -0.03585413981245
C           -1.51689934601175       -2.59859956831928       -0.05351774653234
H            3.61523769315279        1.30156825716417        1.08886626500092
H            3.95382643533343        1.07828134474473       -0.63542655706837
H            2.63191968693427        2.16188565044923       -0.11488281761588
H            5.14835731605920       -2.86613232600265       -0.06926723296007
H           -1.76228330634923        3.12087616368687       -0.03386509988153
H           -2.90986497355860        2.11587899601281       -0.96570753611539
H           -2.97280901440284        2.10431361351627        0.80181166557334
H           -1.20050214323411       -3.14173608815301        0.83934454725028
H           -1.17686026229324       -3.12776671412313       -0.94585356576747
H           -2.60325295999113       -2.52801695590099       -0.06698121303364
H            1.34737841474204       -2.85097615278668       -0.00865379529026
25
 energy: 52.327354891051 xtb: 6.6.1 (8d0f1dd)
C            3.16373428873715        1.23373314344610        0.09568738257745
N            2.23543999117102        0.13493426078096        0.04853132730190
C            2.57895152144757       -1.15552793870604        0.04899357072796
N            1.39332902963534       -1.84840169397357        0.00573553107596
C            0.33612227548691       -0.98929737454355       -0.01125509086659
C            0.85692545188376        0.28539141949503        0.01151019822327
C            0.01808200480913        1.44556077648642        0.00249836789448
O            0.37877697777502        2.60898733337307        0.01286642717894
N           -1.33972073412284        1.09575071609673       -0.03228790165079
C           -2.31094223632486        2.18115024069611       -0.05783297527493
C           -1.88162302818056       -0.17125564243713       -0.04799913014380
O           -3.07899075330268       -0.35325739121548       -0.07213124030716
N           -0.99878763347140       -1.24759412441339       -0.03490566796498
C           -1.51585910791582       -2.59802370802521       -0.05334859164973
H            3.61331379482079        1.30122335650328        1.08884607016462
H            3.95828984433953        1.07489570957166       -0.63303636773454
H            2.63590758904910        2.16168783327047       -0.11917626699720
H            5.15048666937111       -2.86276407666045       -0.04657024449397
H           -1.76286353636056        3.12071915823328       -0.03287376085672
H           -2.91273651355985        2.11791411561989       -0.96406997698361
H           -2.97395863409720        2.10473252381765        0.80317629959992
H           -1.20056264819498       -3.14160572409162        0.83953147064603
H           -1.17622139604790       -3.12778761727084       -0.94545258966934
H           -2.60262349011248       -2.52843075440109       -0.06770000122992
H            1.34774457813720       -2.85370575290827       -0.01170292737269
25
 energy: 52.270172528044 xtb: 6.6.1 (8d0f1dd)
C            3.16330097807365        1.23344574836207        0.09508293834982
N            2.23499104101006        0.13487371906754        0.04522540948104
C            2.57941089559104       -1.15719182046300        0.03686589379503
N            1.39224995657875       -1.84950965676558        0.00230593870162
C            0.33759803995100       -0.99098920178038       -0.00687435270284
C            0.85720356366606        0.28487385505021        0.01900030102773
C            0.01758010690529        1.44626373152136        0.00497482590848
O            0.38001935472906        2.60795991657993        0.01387041765412
N           -1.33816087382700        1.09650540398155       -0.03134048911107
C           -2.31007198953440        2.18107958748765       -0.05917935434281
C           -1.88092284432771       -0.17182923064043       -0.04601848421697
O           -3.07800625508401       -0.35283568125059       -0.07122873397762
N           -0.99733324655441       -1.24802365163362       -0.03348545505966
C           -1.51641616140917       -2.59785467761905       -0.05290519671887
H            3.61105726692591        1.30200225841214        1.08865257480693
H            3.95817339398068        1.07547571724903       -0.63237216895314
H            2.63486677536381        2.16062686783305       -0.12027693320588
H            5.14494403361031       -2.85661786385936       -0.03572451317533
H           -1.76236236222870        3.12077869854607       -0.03477470810912
H           -2.91120340727662        2.11669717526193       -0.96574234693969
H           -2.97353940243587        2.10531906928115        0.80149450616236
H           -1.20116833170685       -3.14216797546515        0.83928700032553
H           -1.17796631416984       -3.12697692067791       -0.94568234189751
H           -2.60334145619593       -2.52786860827483       -0.06660503068507
H            1.35131154333740       -2.85500767145977       -0.01751578492250
25
 energy: 52.238293563175 xtb: 6.6.1 (8d0f1dd)
C            3.16368737127755        1.23288316186579        0.09501944041423
N            2.23472698158374        0.13456807419862        0.04235461374332
C            2.57878860222864       -1.15880599761788        0.03060320756174
N            1.39221278808318       -1.84884117095603        0.00137186846895
C            0.33762129801513       -0.99176673208874       -0.00531830958438
C            0.85793147181947        0.28419743783119        0.02245344872710
C            0.01873342297293        1.44745603786692        0.00402696150325
O            0.37918830538174        2.60819517760200        0.01291577729353
N           -1.33746638915758        1.09698467582457       -0.03266926170933
C           -2.31009963919982        2.18084166238559       -0.05852155041182
C           -1.88161889627517       -0.17227623301412       -0.04772775798365
O           -3.07819914433784       -0.35230825195917       -0.07210335786109
N           -0.99696066931385       -1.24740868017223       -0.03426893850731
C           -1.51644344963823       -2.59791677891268       -0.05277129592845
H            3.60942364817541        1.30178884030127        1.08893114219178
H            3.95949183079171        1.07472120970515       -0.63104742019935
H            2.63614962131018        2.16025807724832       -0.12170073354548
H            5.14251928966840       -2.85448783893027       -0.03095971306480
H           -1.76342170785201        3.12107404872229       -0.03325446030140
H           -2.91213881992655        2.11741324257123       -0.96454479027415
H           -2.97302682423966        2.10402079785207        0.80259691688106
H           -1.20124300231050       -3.14140816774921        0.83977014287930
H           -1.17747343811805       -3.12728126556075       -0.94514823781904
H           -2.60332859029622       -2.52805379128011       -0.06704253668193
H            1.35316024432987       -2.85481874698985       -0.01593124359750
25
 energy: 52.235584874011 xtb: 6.6.1 (8d0f1dd)
C            3.16340552736901        1.23302030607490        0.09528860989367
N            2.23462740323269        0.13438517056477        0.04209983799073
C            2.57854136631127       -1.15961690543472        0.02892868540835
N            1.39278724388903       -1.84819273637239        0.00016411549698
C            0.33705895651221       -0.99199445622103       -0.00436812269403
C            0.85823924044598        0.28369373238461        0.02427039107380
C            0.01992184657247        1.44777665434873        0.00525838366925
O            0.37836253595540        2.60851991401629        0.01347987387998
N           -1.33734968950212        1.09683099305683       -0.03202949209593
C           -2.30972025801597        2.18076922918169       -0.05929178011997
C           -1.88226773593872       -0.17264197372938       -0.04646314471262
O           -3.07859649062872       -0.35223375318935       -0.07146738970710
N           -0.99731178444976       -1.24706168504733       -0.03367851358030
C           -1.51664301777971       -2.59813184398699       -0.05268957797737
H            3.60914401422808        1.30180086747570        1.08896055077183
H            3.95898597895628        1.07497307219886       -0.63103774675874
H            2.63586920189895        2.16039161256330       -0.12149354095234
H            5.14359957143898       -2.85464315705075       -0.03113835693642
H           -1.76309017624780        3.12104704361200       -0.03449585365066
H           -2.91132120122153        2.11685653567111       -0.96562021474789
H           -2.97319379406409        2.10482376190360        0.80158559428592
H           -1.20112200632479       -3.14190030073539        0.83949636798563
H           -1.17773541398373       -3.12685624367801       -0.94543170199018
H           -2.60342623734449       -2.52814832335235       -0.06667502118038
H            1.35344922366354       -2.85443872551066       -0.01661804115768
25
 energy: 52.239148548165 xtb: 6.6.1 (8d0f1dd)
C            3.16329718526666        1.23307696348082        0.09522698830218
N            2.23470245335480        0.13421403235279        0.04252155344131
C            2.57826487829390       -1.15990292329333        0.02891152890959
N            1.39315820867641       -1.84785279409761       -0.00000074962285
C            0.33648526716325       -0.99180681520456       -0.00472399073282
C            0.85839862006018        0.28351800538264        0.02355499853311
C            0.02079763344268        1.44770994718608        0.00452910029019
O            0.37816982889904        2.60871770568778        0.01296272077534
N           -1.33738201378041        1.09670069126826       -0.03259750421590
C           -2.30968407618199        2.18066769498476       -0.05874876688620
C           -1.88242986115868       -0.17267540649528       -0.04739555418072
O           -3.07877395724536       -0.35215163345297       -0.07190415968696
N           -0.99769556865120       -1.24683264348179       -0.03428772275360
C           -1.51673866400372       -2.59817831445767       -0.05272499760362
H            3.60901392810597        1.30209157933908        1.08894842198390
H            3.95903836021461        1.07489055948338       -0.63110055305997
H            2.63565848023941        2.16031518206279       -0.12187785092672
H            5.14540236526578       -2.85496887307818       -0.02986931408099
H           -1.76329412111157        3.12107043569629       -0.03361742594854
H           -2.91171699893177        2.11715657161037       -0.96482911223145
H           -2.97280751327211        2.10411368668144        0.80237371215531
H           -1.20122610717919       -3.14141176727923        0.83976801322354
H           -1.17762259687370       -3.12715796712165       -0.94521113028743
H           -2.60345983921910       -2.52806393718060       -0.06686685511033
H            1.35265841359863       -2.85421119132961       -0.01600743809180
