25
 energy: 0.000000000000 xtb: 6.6.1 (8d0f1dd)
C            3.23720163006194        1.16630919979326        0.08434469647475
N            2.29877817382611        0.07527477071623        0.03981603040599
C            2.58028210190900       -1.21425402444508        0.03006176031096
N            1.43813958087363       -1.93419271955128        0.00098261760884
C            0.39035688448383       -1.05887472636071       -0.00790371836672
C            0.93510056364412        0.21347819449412        0.01709077491437
C            0.09450143893243        1.40504303904423       -0.00410947031874
O            0.49712751527797        2.54126714362870       -0.00342325688240
N           -1.25076640035757        1.06271879480407       -0.03085478223738
C           -2.21907211982101        2.15522099834493       -0.05001256985998
C           -1.81739487048744       -0.20012725993278       -0.04692818574614
O           -2.99983886758376       -0.37846417018721       -0.07008878229737
N           -0.92618586207120       -1.30210215599479       -0.03682761578324
C           -1.46982264913417       -2.64643102187190       -0.06029820460571
H            3.71247264356769        1.21471455160235        1.06488849150277
H            4.00791497605742        1.03430808813993       -0.67357694370751
H            2.69910007168542        2.09770118228144       -0.09130154882931
H            3.56654120610678       -1.63682992603973        0.04233140067262
H           -1.67107961066214        3.09322851271934       -0.02552706933167
H           -2.82428953597071        2.09428624779827       -0.95318082946668
H           -2.87644029173232        2.07745725625962        0.81450067533302
H           -1.17061996399332       -3.19584890659852        0.83242232437030
H           -1.14560257411436       -3.17511610292205       -0.95688275822323
H           -2.55549792440841       -2.55659984320617       -0.07459039797972
H            1.38130855184625       -2.94313852034425       -0.01389874181052
25
 energy: -2.490468680795 xtb: 6.6.1 (8d0f1dd)
C            3.23579865328675        1.18393212171957        0.08919226357480
N            2.32979376308457        0.07794268935194        0.03878743143146
C            2.64837367378203       -1.26337213791255        0.02678341680408
N            1.44564047655538       -1.93999288949258        0.00058378081813
C            0.40700160353156       -1.05362627834424       -0.00673388363346
C            0.94277645432326        0.22094541976816        0.01722133436767
C            0.09723777133908        1.39808864300195       -0.00160713750895
O            0.48448770932549        2.56711164483177        0.00096704305045
N           -1.26860671444485        1.05831557085659       -0.03054445970119
C           -2.23832959730760        2.15229255667281       -0.05238352713564
C           -1.82732494950661       -0.19390903393997       -0.04679530738570
O           -3.02414783403590       -0.37847143848625       -0.07067005110879
N           -0.93115686212238       -1.29201853496360       -0.03535591426461
C           -1.47900790122892       -2.63079349303908       -0.05775801296227
H            3.69826912473882        1.24529643263818        1.07676620724843
H            4.00898410679987        1.05573036987185       -0.66674641529630
H            2.67776764967487        2.10300054690918       -0.09698454984665
H            3.67407758254694       -1.76785417472200        0.02227853597051
H           -1.68916072995499        3.09099942133184       -0.02798146546336
H           -2.84607450317876        2.09765811333808       -0.95599253063385
H           -2.90128154739309        2.08232771103672        0.81023237182344
H           -1.17791336151556       -3.18160316640725        0.83491324395467
H           -1.15321702113970       -3.16262777487699       -0.95338046115290
H           -2.56524412271046       -2.54020531822150       -0.07201810859110
H            1.36347124348643       -2.94013839875062       -0.01573990821158
25
 energy: 6.147164229901 xtb: 6.6.1 (8d0f1dd)
C            3.23025806507992        1.19885143002685        0.09465905690382
N            2.35956701508766        0.06766757076284        0.03474714656723
C            2.71326515280967       -1.31206426780741        0.02239980290625
N            1.45459591488407       -1.94057461619690       -0.00171977699234
C            0.42496616214325       -1.05021802787775       -0.00619798464860
C            0.95459075398524        0.22473772761182        0.01717467798543
C            0.10428508371339        1.38706571959509        0.00204085958906
O            0.46054662540478        2.57393378787697        0.00777732363309
N           -1.28277997310685        1.05802405811963       -0.02978167730446
C           -2.25608130133053        2.15210558477892       -0.05537678864017
C           -1.82705274255535       -0.18664024162820       -0.04558050319820
O           -3.02758296135543       -0.37984135171654       -0.07051324238629
N           -0.92997778617155       -1.27927115985663       -0.03305601514581
C           -1.48746988283102       -2.61180569497813       -0.05371217219377
H            3.67557054496945        1.29091878294494        1.09004041396633
H            4.01680908453042        1.09090903095387       -0.65080808039793
H            2.64909242434575        2.10334121761591       -0.10683638199337
H            3.76889372284092       -1.91151836586387       -0.00571211714026
H           -1.71282844667809        3.09473277314603       -0.03111854547444
H           -2.86708135238327        2.09822824401865       -0.95862787580059
H           -2.92663068774639        2.08526240140976        0.80344018932938
H           -1.19002533472646       -3.16494811835051        0.83944169974875
H           -1.16615747276700       -3.14843117528286       -0.94884238091329
H           -2.57405302961454       -2.51517984833094       -0.06764040853996
H            1.34749508940824       -2.93625685879954       -0.01916332371254
25
 energy: 12.940036240523 xtb: 6.6.1 (8d0f1dd)
C            3.22292153910800        1.20654121052190        0.09681718261862
N            2.37090266061641        0.05926127303205        0.02819467669147
C            2.73965013996675       -1.33500042046006        0.02042560635683
N            1.46147326651216       -1.94305677460966       -0.00633904939676
C            0.43365448566417       -1.05294547126549       -0.00843005024802
C            0.96088250721486        0.22441288926783        0.01500905831504
C            0.11136593686660        1.38520053316326        0.00361394117093
O            0.45013294640768        2.57437430048155        0.01240083068656
N           -1.28556297693537        1.06223055545124       -0.02907887786418
C           -2.26236666772509        2.15370794981992       -0.05631317704325
C           -1.82333319635472       -0.18337785485572       -0.04444885605667
O           -3.02341629723312       -0.38119938860934       -0.06902782119150
N           -0.92592323831837       -1.27439710426253       -0.03218347955071
C           -1.49233873024429       -2.60301338492232       -0.05069618702186
H            3.65235131407183        1.31840916457933        1.09816001033879
H            4.02350672486589        1.11457403984701       -0.63618742362477
H            2.62929747897778        2.10108998118404       -0.11696580384250
H            3.81623883834124       -1.98321407315319       -0.01775401382108
H           -1.72591411170044        3.09967151208747       -0.03201873353262
H           -2.87396696680299        2.09601793559298       -0.95961239063008
H           -2.93589109871494        2.08421702553025        0.80061399052376
H           -1.19930333146417       -3.15644398727644        0.84335629541292
H           -1.17702167536115       -3.14194311179750       -0.94619198966104
H           -2.57872464932886       -2.49769663874139       -0.06374028256174
H            1.34359976950635       -2.93839155843320       -0.02256955992085
25
 energy: 15.380414379848 xtb: 6.6.1 (8d0f1dd)
C            3.21953677371960        1.20841163801249        0.09688984031905
N            2.37121830768897        0.05817976366490        0.02385119416431
C            2.74260668534093       -1.33811198735003        0.02158798980338
N            1.46377398707261       -1.94323371706341       -0.00813352260014
C            0.43443985395227       -1.05470845786547       -0.00957768185081
C            0.96122571152910        0.22441430281193        0.01404013069686
C            0.11402443837594        1.38726260240989        0.00362671226777
O            0.44692947304441        2.57487451966087        0.01384820729919
N           -1.28532369685988        1.06464088052903       -0.02897701194364
C           -2.26302409146587        2.15461500239798       -0.05616777748103
C           -1.82253444325749       -0.18270065237676       -0.04408374072275
O           -3.02196233012134       -0.38099318935089       -0.06836651616841
N           -0.92455053276761       -1.27372999048432       -0.03201728867770
C           -1.49365635471436       -2.60197341351115       -0.04997600618927
H            3.64197091859557        1.32303611325727        1.10007824460469
H            4.02485711139694        1.11910393235871       -0.63032010826585
H            2.62566321059532        2.10057500199111       -0.12173222113371
H            3.83420037619577       -2.00158351014103       -0.02022126069141
H           -1.72853500324095        3.10126099290143       -0.03168118615361
H           -2.87439256827138        2.09559461775812       -0.95963096450428
H           -2.93653698064426        2.08365550477696        0.80070681416770
H           -1.20183967403394       -3.15506304662159        0.84424424092242
H           -1.18002087473813       -3.14109136272101       -0.94548720183934
H           -2.57994672224717       -2.49457666486029       -0.06282932646368
H            1.34409109279121       -2.93883027801275       -0.02263766341246
25
 energy: 17.497411116811 xtb: 6.6.1 (8d0f1dd)
C            3.21790745438784        1.20888309733735        0.09677743601102
N            2.36921635618735        0.05908324518114        0.01903930390351
C            2.73970223961748       -1.33630615827570        0.02474983173603
N            1.46472839220255       -1.94230145954236       -0.00904990324486
C            0.43296765455225       -1.05578637357175       -0.01016715935347
C            0.96003624917605        0.22462539902743        0.01363004073913
C            0.11567633813045        1.39003570564998        0.00321348464509
O            0.44435652715053        2.57604479585111        0.01473786225823
N           -1.28507517889900        1.06589688580085       -0.02910401608910
C           -2.26305821402681        2.15488232291992       -0.05589957653337
C           -1.82320328630504       -0.18262943209630       -0.04390513772764
O           -3.02196010769235       -0.38038057524404       -0.06799662178055
N           -0.92432247487712       -1.27363148807188       -0.03175442243846
C           -1.49443964564758       -2.60238344310497       -0.04982342848200
H            3.63557035941382        1.32269943011220        1.10107658422098
H            4.02578947605106        1.11888599772924       -0.62650531012353
H            2.62634927470774        2.10067668708561       -0.12507494580517
H            3.85163280654846       -2.01156910218158       -0.02246423960522
H           -1.72938444793144        3.10174771585850       -0.03119562073831
H           -2.87434813539195        2.09587856261432       -0.95939170540414
H           -2.93626496230926        2.08352398189984        0.80116845260995
H           -1.20277049212833       -3.15494568388129        0.84440052130977
H           -1.18090048448399       -3.14091983465714       -0.94533140555020
H           -2.58066057743803       -2.49474805165759       -0.06276350129499
H            1.34466954694158       -2.93823362261088       -0.02133262711546
25
 energy: 18.752380864497 xtb: 6.6.1 (8d0f1dd)
C            3.21838777164507        1.20843167496792        0.09671849850015
N            2.36744229491200        0.06051447871037        0.01613174960562
C            2.73492126137388       -1.33269898935049        0.02881204685516
N            1.46412983397027       -1.94122941976129       -0.00905709465616
C            0.43103038259292       -1.05546907140746       -0.01031560784209
C            0.95867958772745        0.22495847805008        0.01354726397858
C            0.11568526722201        1.39121566735975        0.00253035435569
O            0.44356331520734        2.57709244170707        0.01467691198681
N           -1.28551475615292        1.06547066291302       -0.02935780729511
C           -2.26312865065681        2.15464760065295       -0.05571352274281
C           -1.82466958610021       -0.18278647226005       -0.04399128757374
O           -3.02319078394604       -0.38005294088473       -0.06793435140610
N           -0.92522017092909       -1.27367400086886       -0.03163901782888
C           -1.49461306298543       -2.60309121918675       -0.05007849695892
H            3.63565195633601        1.32004150513884        1.10119893245676
H            4.02608620563205        1.11658279044995       -0.62642672491831
H            2.62861512780751        2.10139894738851       -0.12503594953475
H            3.86314518504856       -2.01393639320775       -0.02395442141810
H           -1.72907413710770        3.10141937665680       -0.03092820279774
H           -2.87458957393691        2.09648271444398       -0.95910362357579
H           -2.93612120417888        2.08381856484548        0.80155477985211
H           -1.20231875495152       -3.15544804064860        0.84405055715357
H           -1.18023436536050       -3.14105601811286       -0.94563037810770
H           -2.58081580457017       -2.49633373134498       -0.06310968139179
H            1.34436732933736       -2.93727000407889       -0.01991103054916
25
 energy: 19.452837806316 xtb: 6.6.1 (8d0f1dd)
C            3.21915739503349        1.20803202150950        0.09671259073370
N            2.36688942266413        0.06126992290239        0.01512858789265
C            2.73176978423759       -1.33029393967493        0.03280376348657
N            1.46317139754695       -1.94080086158459       -0.00881634042946
C            0.43000061200751       -1.05461501341050       -0.01055374491986
C            0.95792317897264        0.22530682062508        0.01329735394757
C            0.11485382968491        1.39102494394342        0.00195606037501
O            0.44396754213346        2.57746125528090        0.01412494230267
N           -1.28632192770220        1.06475541804886       -0.02951339793340
C           -2.26343790168055        2.15458442280461       -0.05563957507913
C           -1.82573935360813       -0.18272500422981       -0.04414255126341
O           -3.02432671759483       -0.38009863831196       -0.06795764869451
N           -0.92621500674517       -1.27366791096879       -0.03177727734319
C           -1.49453920177604       -2.60337190570654       -0.05035419341476
H            3.63810781917104        1.31792368194038        1.10090660852378
H            4.02566194372829        1.11536748650547       -0.62801738633171
H            2.62971633212930        2.10214728882633       -0.12326150301133
H            3.86987720537111       -2.01447884389805       -0.02506779951564
H           -1.72867288147367        3.10113964403992       -0.03086259013131
H           -2.87503334588550        2.09699513834749       -0.95895865145063
H           -2.93633455116331        2.08422303929204        0.80173424348625
H           -1.20167120991603       -3.15579930751833        0.84369733875228
H           -1.17956223383725       -3.14119980426948       -0.94594614698453
H           -2.58076065217119       -2.49739673228043       -0.06334428795699
H            1.34373318880970       -2.93675452004096       -0.01911449889332
25
 energy: 19.777393236865 xtb: 6.6.1 (8d0f1dd)
C            3.21937275425999        1.20794272109726        0.09669725837534
N            2.36707251259225        0.06129754257455        0.01523648779408
C            2.73082212337380       -1.32963145811318        0.03578741358214
N            1.46262213222627       -1.94091782996721       -0.00868145058198
C            0.42989786310837       -1.05404735891619       -0.01100285486286
C            0.95772243426480        0.22554282167095        0.01276635687339
C            0.11400380677320        1.39054175818230        0.00162524768751
O            0.44456497262412        2.57733978619436        0.01364627378369
N           -1.28686577232616        1.06454653167296       -0.02952022642791
C           -2.26374475493923        2.15477689528174       -0.05557901266269
C           -1.82602157870383       -0.18251340323716       -0.04424505597978
O           -3.02472801505219       -0.38024826209779       -0.06793081629335
N           -0.92668833509668       -1.27366960649421       -0.03207583299994
C           -1.49445851288375       -2.60330259573457       -0.05050374231968
H            3.63973735442733        1.31720917297839        1.10060300400066
H            4.02507392394572        1.11553984365604       -0.62923764190597
H            2.62952443662118        2.10243996817947       -0.12190969091480
H            3.87284561269660       -2.01520677319471       -0.02592414061907
H           -1.72853945511617        3.10113997273558       -0.03082982299031
H           -2.87534657884078        2.09726400727885       -0.95888776212037
H           -2.93659455715074        2.08448293584740        0.80181612463982
H           -1.20137889790058       -3.15582066518030        0.84353642015138
H           -1.17940453136424       -3.14128062275411       -0.94609043462500
H           -2.58071524621662       -2.49763102913534       -0.06339373443532
H            1.34344097661356       -2.93676575035307       -0.01886847100171
25
 energy: 20.008838848147 xtb: 6.6.1 (8d0f1dd)
C            3.21920842956842        1.20801408012617        0.09663971674137
N            2.36743822769287        0.06102309730940        0.01576944866631
C            2.73078059250925       -1.32969807187877        0.03922598120915
N            1.46228376518502       -1.94124243995223       -0.00865252315631
C            0.43017213302745       -1.05369630237696       -0.01180532593898
C            0.95769075676398        0.22573395618041        0.01178489398599
C            0.11306372602738        1.39013153725354        0.00134495725686
O            0.44511443753182        2.57702331297034        0.01326373491117
N           -1.28715071081198        1.06472730930520       -0.02942772848211
C           -2.26401438533426        2.15510679763695       -0.05546099070490
C           -1.82588980223449       -0.18224732695196       -0.04430586202748
O           -3.02470763135547       -0.38034892438564       -0.06781620901957
N           -0.92686494818207       -1.27370315811034       -0.03254771729572
C           -1.49441122888451       -2.60310252660119       -0.05062490780073
H            3.64058270750081        1.31718025598995        1.10029870805409
H            4.02447037620549        1.11631340959826       -0.63003688723688
H            2.62877724653066        2.10243815934602       -0.12108104524728
H            3.87468175837403       -2.01643372301761       -0.02714028082639
H           -1.72857583711384        3.10130551922371       -0.03073367336973
H           -2.87555845955485        2.09741903227860       -0.95878085068700
H           -2.93680991381596        2.08463937119492        0.80192126194472
H           -1.20129789375558       -3.15564982778207        0.84345350477891
H           -1.17954459124274       -3.14135652955477       -0.94616218603504
H           -2.58071818692006       -2.49752064455002       -0.06338685843935
H            1.34349410022490       -2.93702776107992       -0.01870526513379
25
 energy: 20.002487613092 xtb: 6.6.1 (8d0f1dd)
C            3.21902309126089        1.20807833808799        0.09660249983827
N            2.36741049124071        0.06094746552500        0.01588549373360
C            2.73106413627778       -1.32989137000535        0.04040969910112
N            1.46236041168610       -1.94129993452350       -0.00875335415078
C            0.43026247182033       -1.05380849647182       -0.01218876680120
C            0.95772478290075        0.22569402241703        0.01130741094187
C            0.11292940219190        1.39027077279147        0.00128302588834
O            0.44506407887821        2.57697439308640        0.01335189326163
N           -1.28691198089094        1.06494010400243       -0.02938656590490
C           -2.26396320285340        2.15511557838761       -0.05537958810660
C           -1.82572058474146       -0.18226446742191       -0.04429674358227
O           -3.02453789844619       -0.38021080508087       -0.06770518931775
N           -0.92672282520899       -1.27371904207522       -0.03272095388179
C           -1.49445870439899       -2.60306613739655       -0.05065198412572
H            3.64011312765360        1.31742351598253        1.10029307955037
H            4.02450496568140        1.11643989430595       -0.62975862823157
H            2.62862241245310        2.10230108105592       -0.12145314956221
H            3.87448385762417       -2.01673287263173       -0.02780677252934
H           -1.72869878597041        3.10138120720382       -0.03065642605476
H           -2.87549437619329        2.09733878763602       -0.95870084064658
H           -2.93676592870163        2.08453864725155        0.80198666065745
H           -1.20139845222058       -3.15552949501928        0.84346831414777
H           -1.17968268725486       -3.14137095525492       -0.94615120872498
H           -2.58076629019232       -2.49740213527052       -0.06338899539180
H            1.34377315534036       -2.93711949441002       -0.01855501396089
