25
 energy: 73.266416207267 xtb: 6.6.1 (8d0f1dd)
C            3.58861220966996        0.97022677357082        0.09353160875205
N            2.50571429742284        0.04325478806595        0.06305656756860
C            2.74152050911638       -1.27668097800087       -0.09304975749140
N            1.57224772421509       -1.96391353625547       -0.09535023420185
C            0.51790242557069       -1.06994291673242       -0.00427861631513
C            1.09253470822143        0.25131006820890        0.10355078129156
C            0.33387703246154        1.37051281775078        0.12523965565679
O            0.15863833433700        2.51166778432659        0.43309839506093
N           -2.12284966317905        1.21462323774843       -0.22896482008926
C           -2.79167109948968        2.47161026172117       -0.19975297573797
C           -2.68152455062814        0.17210522178987       -0.01124512439578
O           -3.37176758119191       -0.73505938012385        0.17500882787953
N           -0.74167386119357       -1.27665296002176        0.01250348622112
C           -1.20005919574897       -2.63932198302564       -0.02411509496840
H            3.73658925419677        1.43199649358029        1.06100169705216
H            4.49359156679228        0.38241903185978       -0.17182703139390
H            3.55299984356484        1.79078878964315       -0.60511159345551
H            3.68011647356705       -1.73498248345320       -0.24181930115030
H           -2.06026046780303        3.25560282021440       -0.06937321638445
H           -3.31746671314519        2.65079971994065       -1.13151756362055
H           -3.47798175589362        2.55194192767093        0.63112345382207
H           -0.61465579260064       -3.23499168351835        0.68273234675422
H           -1.06514825523398       -3.02717228823996       -1.03882709964890
H           -2.25927855007229       -2.74833861500598        0.23134227996828
H            1.50874679882148       -2.95853596119175       -0.17551964694711
