25
 energy: 69.236664069955 xtb: 6.6.1 (8d0f1dd)
C            3.52733840418121        1.02796066391397        0.10020858055836
N            2.44512632110013        0.09132690761603        0.01757184443603
C            2.68573739272622       -1.25540096488910       -0.06700880404774
N            1.49910385143743       -1.92634947708789       -0.10774848690316
C            0.46240676646051       -1.03857719603601       -0.02084803625281
C            1.02033559673753        0.28105322996434        0.07239470769534
C            0.22740650633053        1.38973153067496        0.12713910745848
O            0.13734961192827        2.55930097057770        0.33584669318860
N           -1.90755831069908        1.14444009914500       -0.16468934540634
C           -2.65581643498373        2.38170494894041       -0.16748263716662
C           -2.43353096558281        0.03871329414912        0.00067054221512
O           -3.28619682308147       -0.74191028507955        0.15221419410304
N           -0.82336726564188       -1.25331318114354        0.00804610810272
C           -1.25280010048191       -2.63191925741124       -0.03680152182224
H            3.74655813167668        1.37115622581409        1.11167667156855
H            4.44514984412038        0.52990568032777       -0.28204458570713
H            3.40143925836405        1.91527364637634       -0.49668073328401
H            3.62131589664505       -1.73484425740474       -0.17678172071902
H           -1.96376422282134        3.20849420986981       -0.07033606798375
H           -3.19410632017984        2.54535041564651       -1.09439485738136
H           -3.33211184365675        2.47738315245643        0.67277535760562
H           -0.72309277705185       -3.23152503523423        0.71418266600929
H           -1.04596293251414       -3.04255409725141       -1.03181697778757
H           -2.32415982031881       -2.72098730694873        0.16379984045716
H            1.44083164242694       -2.92488205197655       -0.15595143738931
