25
 energy: 73.044628065654 xtb: 6.6.1 (8d0f1dd)
C            3.64848198874703        0.91359272069343        0.09010514302686
N            2.56226141552591       -0.00330255665028        0.06821974454065
C            2.79841959211508       -1.31375486887993       -0.11615735148499
N            1.63370390978921       -2.00297790970172       -0.09057291715928
C            0.57289042129586       -1.10798093694467        0.01013077401458
C            1.15730540888274        0.20727031178726        0.11611997047622
C            0.41278993366990        1.32959461214219        0.11476915361401
O            0.26211385322093        2.46714637445201        0.45155568895936
N           -2.29770369362095        1.26697059058090       -0.25426338308188
C           -2.91708639474743        2.53961245767504       -0.21267677825277
C           -2.86777164796981        0.24444100477735       -0.01477718428163
O           -3.47364355764787       -0.71889565213457        0.18417510997929
N           -0.68232366896255       -1.30161352601929        0.01004067373175
C           -1.15534773458384       -2.65692308881861       -0.01698936543461
H            3.73141748098849        1.46652703022149        0.99939605072637
H            4.54772869838820        0.27796627223934       -0.02671426775728
H            3.70355442032271        1.65529755357451       -0.68881673650362
H            3.74734876187053       -1.75500872024059       -0.26639981414304
H           -2.15692865728949        3.29645639234716       -0.06539777195518
H           -3.44655048502942        2.72065620566460       -1.14469133634970
H           -3.61973248939092        2.60519080377368        0.60270426707104
H           -0.51216392667683       -3.23147788793595        0.64888415447827
H           -1.09470725622846       -3.05714222130184       -1.03393090919145
H           -2.19828259195833       -2.77226890024530        0.30626348134953
H            1.57243848793510       -2.99519641275460       -0.18335722888822
