25
 energy: 8.094029965049 xtb: 6.6.1 (8d0f1dd)
C            3.38594328985419        1.10592477344800        0.10064151351288
N            2.33956587190061        0.12183816738666       -0.00561751630705
C            2.59802932985343       -1.25498611158049       -0.00353979976205
N            1.38720644925275       -1.90134186044165       -0.06393858670880
C            0.38381399247270       -0.99149427431481       -0.03237635866443
C            0.90701283379250        0.29547959805944        0.02274250065298
C           -0.02355933678858        1.38802418688137        0.06883751977508
O            0.26833336943292        2.57945750030580        0.13181230864902
N           -1.52283250670704        1.07279746558508       -0.04609708136974
C           -2.42438532628464        2.23959952702341       -0.09894245471087
C           -2.02858005734792       -0.18462588703917        0.00406984184605
O           -3.17480592500764       -0.53767690858311        0.02695469946113
N           -0.96955930461671       -1.22239988802574        0.01180736876331
C           -1.37459627100446       -2.62421831766931       -0.04416836448952
H            3.75652893959193        1.24024212116758        1.13832048829691
H            4.26110237534316        0.79354280851310       -0.50043412390377
H            3.05607687949212        2.06123063894563       -0.29201437518216
H            3.55873222345872       -1.73951611542686       -0.04289471315193
H           -1.81310549701305        3.14160592457298       -0.05660075393761
H           -3.00901812684815        2.29134495639885       -1.01699657242262
H           -3.10776184798981        2.25812175168496        0.74804569695946
H           -0.94271792583931       -3.20719850110836        0.77838315672547
H           -1.08222133880913       -3.09596263305963       -0.99208911937324
H           -2.45826064342846       -2.64697207545131        0.05230240797433
H            1.31107784992493       -2.90825629328871       -0.10181339111456
