25
 energy: 71.507263390704 xtb: 6.6.1 (8d0f1dd)
C            3.69218644578017        0.88164452304372        0.10784065394958
N            2.61604198850487       -0.04493691178442        0.06725559665889
C            2.85786368777356       -1.35081612288898       -0.14316598438916
N            1.69524045919764       -2.04078462867668       -0.08306796291419
C            0.62958435641590       -1.15020607483905        0.01747542794590
C            1.22124808222190        0.16240770200832        0.11978826804440
C            0.49277054025274        1.28943144508885        0.12268491646091
O            0.32490085102653        2.39920670797801        0.52799567452227
N           -2.47481861330346        1.31446577289354       -0.26780983161053
C           -3.03775937713052        2.60842882574216       -0.21314941414488
C           -3.04832819870770        0.30492446438539        0.00742409770159
O           -3.58930269508288       -0.70365246391592        0.17648012887884
N           -0.62372981294220       -1.34053186190463        0.01098857844153
C           -1.11838078428122       -2.68347955366207       -0.02018830630079
H            3.68650649775518        1.53649070892254        0.96332266916958
H            4.57458273943155        0.22731559074146        0.16574868773274
H            3.83981398689062        1.50318353559406       -0.76787783097100
H            3.81758014105675       -1.78324830419424       -0.25409607033036
H           -2.24903174605477        3.33888687262544       -0.05591010965743
H           -3.56221541950034        2.81042723074504       -1.14648185268806
H           -3.75584238766681        2.65612100732047        0.59697863407340
H           -0.45271964122063       -3.28885203882023        0.58325530416892
H           -1.13002637181641       -3.07926844857747       -1.04057970008408
H           -2.13888694076812       -2.77590632699409        0.37046130677867
H            1.63864564145768       -3.03111177105977       -0.18547604038145
