25
 energy: 64.880331544785 xtb: 6.6.1 (8d0f1dd)
C            3.76930502647929        0.84597309488099        0.12431756388458
N            2.73292688641630       -0.13064323866913        0.09955421358807
C            2.97342158269899       -1.43277692062059       -0.15826713182102
N            1.80812396452395       -2.11051006719679       -0.05397099510944
C            0.73379219708203       -1.23562869998257        0.02144953803763
C            1.33615359035545        0.08387977408361        0.14223115749957
C            0.63342528694315        1.20505539309114        0.18829614370204
O            0.32278175941923        2.30866905359735        0.50111139767375
N           -2.84348273682237        1.43781882803574       -0.30791204793366
C           -3.25907231014805        2.77595120185146       -0.22155910878746
C           -3.34437150183191        0.39882522921813       -0.00818478493919
O           -3.60586650589293       -0.71149232868299        0.20149620092113
N           -0.51373774317097       -1.45269155554676        0.00571022938933
C           -1.05058976933343       -2.77240351807945       -0.01837521929885
H            3.72442003214573        1.43088735151842        1.04037075309533
H            4.73329782931323        0.34205185843887        0.19474342735257
H            3.79113120067937        1.44920997102995       -0.78492741543916
H            3.94097382789288       -1.86378088719593       -0.21905625498208
H           -2.38770018258226        3.40839478424150       -0.09198425517760
H           -3.77422249967700        3.04579056881245       -1.14244486822118
H           -3.93409546980060        2.89710039657539        0.62615684809627
H           -0.43464687398918       -3.46146097280870        0.57978346886662
H           -1.08597248133126       -3.14818577163256       -1.04593428695074
H           -2.06074631361227       -2.72980142227345        0.40465641649523
H            1.75987517415390       -3.10030448744306       -0.17707981334936
