25
 energy: 51.392438635919 xtb: 6.6.1 (8d0f1dd)
C            3.48966116386401        1.04993960598939        0.10296702949553
N            2.41137090151344        0.10755403793259       -0.00541764455306
C            2.65413680693997       -1.24855940708039       -0.05160760615273
N            1.45756786189976       -1.90950788998116       -0.10808392065546
C            0.43412036626291       -1.01562573291517       -0.02861305305349
C            0.97376275059038        0.29265224713568        0.05061283937336
C            0.09995604928034        1.37962674481281        0.13065803395375
O            0.16226189874323        2.56946988850554        0.27281420034622
N           -1.76625530668319        1.11207246926822       -0.12376178323508
C           -2.58051335901517        2.33216340007769       -0.14760882684179
C           -2.24878091696541       -0.06730366375681        0.00161819707158
O           -3.24431086631330       -0.69175023679857        0.10676825974002
N           -0.88571756124187       -1.22999153341766        0.00892430892380
C           -1.28964969398819       -2.62549368772480       -0.03856451025307
H            3.75021126559110        1.33122545501274        1.12788513937492
H            4.40294941159480        0.59904202824817       -0.33461887219733
H            3.31552952440408        1.96212793038998       -0.43930214663119
H            3.58699786520131       -1.75592879673807       -0.15654250064169
H           -1.92136538255443        3.18876989722364       -0.06882834324952
H           -3.13159613410632        2.47267256615530       -1.07393202880006
H           -3.26758477877343        2.41340850528702        0.68991273883919
H           -0.77758721246257       -3.22175022605529        0.73199989239306
H           -1.05456230812533       -3.05469787222295       -1.02259905666301
H           -2.36510616935535       -2.70462097082833        0.14124216198255
H            1.40721558628072       -2.91337533812887       -0.13433970939103
