72
 energy: -99.306084465699 gnorm: 0.008950422250 xtb: 6.6.1 (8d0f1dd)
N           -1.83626840332085        2.92189699078251        2.30581080658383
C           -1.77196771462472        2.18042360846265        1.30237971333161
C           -2.88058046771160        1.99946658570624        0.30158867163971
C           -3.34366259712651        0.55222009016753        0.31984759901704
C           -4.17145861544717        0.07445795328898       -0.69854909843625
C           -4.61441212160081       -1.23737194916134       -0.71566190921393
O           -5.40942116167388       -1.77833910663411       -1.66364387527659
C           -5.93493582503773       -0.95010578831025       -2.67377623928423
C           -4.21894941384438       -2.12309748625425        0.32231139861529
O           -4.67915126702200       -3.38686119315195        0.21456067879079
C           -4.38488809700248       -4.31054026106333        1.23597880546595
C           -3.41437587660511       -1.63754326968175        1.34049612500683
C           -2.98476630286877       -0.31578869349412        1.33877483875067
C           -2.26127740301279        2.35348013829819       -1.07732674931358
C           -1.36192563591961        1.26274046224969       -1.68985889734951
C           -0.08219139822779        1.06985906228298       -0.97469696169526
N            0.42894210442910       -0.09963622777011       -0.60430632323803
C            1.79053131161185       -0.18730960919071       -0.13400534181050
C            2.72226060014241       -0.78290169546216       -1.20983041424401
C            4.16429030926849       -0.60423253739161       -0.80249460547253
C            4.79040023001707        0.51981616088839       -1.24594179382511
C            6.11141778599511        0.90528021672891       -1.01421013328053
C            7.25585234197497        1.30787952246253       -0.98468863645001
O            8.48710016781591        1.64453971101546       -0.82314292942892
C            8.75732185836827        3.01081019894814       -0.50330995977256
C            5.92332081938799       -1.56846462379007        0.63949989631327
O            6.49950740341511       -2.44649821057681        1.46196042357450
C            5.81004242333213       -3.63134821413639        1.80638249029321
C            4.71018695241692       -1.62216944817009        0.05158041348471
C           -0.28255233215568       -1.34337816976918       -0.77591684449757
C           -4.11554550568637        2.90878601611876        0.57106659128408
C           -4.78931840021081        2.55842622992232        1.89551526503307
C           -3.78328524437849        4.39810602854673        0.54014274524331
H           -4.48107797955438        0.74451472225954       -1.48333564251888
H           -6.52132697127699       -0.12753281801801       -2.25346373560983
H           -6.58587708705589       -1.58974614708305       -3.26640141889048
H           -5.14510558582579       -0.54675612542298       -3.31642927728310
H           -4.77549635038115       -3.97843949605816        2.20237587601349
H           -4.88014292572687       -5.23483054333385        0.94525422891060
H           -3.30757203847593       -4.48805942694254        1.31885866079650
H           -3.11942894856019       -2.27920951452041        2.15470485825842
H           -2.37932713340365        0.03192625388422        2.16130309065685
H           -3.06779430045929        2.55480351895069       -1.78184853092679
H           -1.68165705835920        3.27151031160376       -0.97133276399380
H           -1.91753849469771        0.33096045055722       -1.77366163989613
H           -1.11957851398863        1.60018208901641       -2.70630052383862
H           -0.86899079317987        1.60957898066707        1.01599047475450
H            0.55097447294831        1.93539717857751       -0.84653159246118
H            1.82291939558950       -0.80278570483806        0.76976146765662
H            2.14543433182922        0.81325082301349        0.12197029893832
H            2.53433229529405       -0.25854539821618       -2.15107458155164
H            2.49062746429221       -1.84035788810928       -1.35853838884131
H            4.21723777433346        1.21912643647078       -1.84506128788918
H            6.57845231646780       -0.72201045497748        0.48335559981353
H            8.16436065729517        3.32826370920482        0.36214760109985
H            8.54325029837054        3.66334368251344       -1.36012151741048
H            9.82123845325931        3.05738551012876       -0.25969001380785
H            6.45900870500183       -4.16082007819895        2.50154518549971
H            4.85854508155652       -3.40473634213414        2.29492315353256
H            5.63048051179401       -4.25441904841789        0.92580740445351
H            4.06759658264627       -2.47652277579241        0.22169644591051
H           -0.34275955295257       -1.62362938147420       -1.83024170202404
H           -1.29350595133116       -1.26452137274517       -0.37252878047339
H            0.24089741204292       -2.12973571044975       -0.23753086224475
H           -4.83080761284440        2.70281737942920       -0.23396853468412
H           -4.11906231958458        2.77158246111508        2.72197858334147
H           -5.06973892913122        1.50835474449582        1.92841618122915
H           -5.68870344687659        3.15645655949224        2.01582569810229
H           -3.05156564708820        4.63538267218161        1.30599136593482
H           -3.40306846487716        4.71037336159330       -0.42881398182921
H           -4.68574577346152        4.96861108260735        0.74324395034188
H           -1.01320880132230        2.99037332960309        2.89645374368145
