  25
        -42.16386378
 C          3.1686184041        1.2407652013        0.0170765029
 N          2.3234158833        0.0764663280        0.0078151000
 C          2.7053889507       -1.1993355869        0.0273149638
 N          1.6156345544       -2.0046547089        0.0198422364
 C          0.5049589057       -1.2105515068       -0.0048880440
 C          0.9483795393        0.1040246862       -0.0115523092
 C          0.0181356264        1.2107957467       -0.0222874177
 O          0.2878713939        2.3903776549       -0.0297889892
 N         -1.3092903868        0.7317886935       -0.0231494855
 C         -2.3239511159        1.8100024676        0.0682973915
 C         -1.7258695162       -0.5291640631       -0.0237596421
 O         -3.5946812506        1.2961550456        0.0365801153
 N         -0.8137765628       -1.5210267166       -0.0202128372
 C         -1.2613497769       -2.8979801151       -0.0133131393
 H          3.6953703798        1.3205485018        0.9690742384
 H          3.9023686531        1.1842455505       -0.7864097684
 H          2.5437459644        2.1230858585       -0.1170419436
 H          3.7192944603       -1.5448960605        0.0466241131
 H         -2.0987755588        2.5292200040       -0.7293849671
 H         -4.0820081844        1.5942851167       -0.7454368936
 H         -2.1429280552        2.3120847391        1.0296346055
 H         -0.9120324793       -3.4113676380        0.8837044597
 H         -0.9027629252       -3.4226878267       -0.9000662406
 H         -2.3487371540       -2.8919264436       -0.0168305699
 H          1.6400108558       -3.0140400688        0.0370118420
