25
 energy: -42.166045438165 gnorm: 0.004574326059 xtb: 6.6.1 (8d0f1dd)
C            3.08813363172333        1.12918441428007        0.30371218519558
N            2.11575915025011        0.14545626923082       -0.09449179933740
C            2.32437703901780       -1.14736033683792       -0.22581278953678
N            1.19867694353576       -1.79712081990726       -0.56031144557866
C            0.11685691600574       -0.85953865761108       -0.74907268511826
C            0.78346623759133        0.41792676450045       -0.34552138312037
C            0.06337415727723        1.55126288822787        0.03495740264059
O            0.45241048453229        2.65975511709787        0.34154498163376
N           -1.37900165681436        1.27285377284203        0.05912302449609
C           -2.21121535039700        2.28521675701695        0.09365705302686
C           -1.90176190886099       -0.05690941153032        0.34247070568257
O           -3.00475768696151       -0.16645215708259        0.79673461938614
N           -1.05181737575901       -1.08384464352560        0.09602857481151
C           -1.53908124970526       -2.44114419245977        0.25406874188270
H            3.63526566752690        0.78543951970574        1.18078493053257
H            3.79636497577698        1.31003100048714       -0.50633406413787
H            2.57213567185887        2.06086601638791        0.53368575847346
H            3.26991574427797       -1.63243170198009       -0.06684120307785
H           -1.80779819894751        3.27926405801718       -0.01234709155829
H           -0.23279038900441       -0.88280697926206       -1.80428607001588
H           -3.26077824967995        2.09678301106341        0.25006829488708
H           -0.86017221866668       -3.00453631552211        0.89314226444216
H           -1.63160444984204       -2.93166198932244       -0.71612133308676
H           -2.51800907335791       -2.39770251879213        0.72621134995631
H            1.14248270272303       -2.77429132342237       -0.79387840457930
