72
 energy: -99.406458707505 gnorm: 0.004167542005 xtb: 6.6.1 (8d0f1dd)
N           -1.68845317828217        1.74922189977097        2.28796956008446
C           -1.76737350484823        2.16412429560514        1.10438424173246
C           -2.91288089821542        1.84583066485204        0.18357508312035
C           -3.49754120160085        0.44332624622979        0.32606657749303
C           -4.55408740478573        0.06851653686291       -0.51008118520413
C           -5.09181682152620       -1.20793833157215       -0.48235306640478
O           -6.10810135189669       -1.64575364495917       -1.25509425833810
C           -6.74223526330990       -0.75416875653488       -2.14022438274770
C           -4.55600665579053       -2.17585506435687        0.40889512526154
O           -5.12390018739893       -3.39725231057618        0.35294078252501
C           -4.68826735289086       -4.39883450551218        1.24209422506203
C           -3.51500595776196       -1.79771229634088        1.24091934858038
C           -2.99647139346315       -0.50971053981987        1.19900926980963
C           -2.42136650799989        2.02213826567015       -1.27238470257010
C           -1.48553013290812        0.89184593402725       -1.72914971548205
C           -0.17004522580827        0.93409396068226       -1.05909731499522
N            0.48136169659365       -0.10594930742266       -0.56303666380698
C            1.85486218894141        0.03263350736700       -0.13860569823359
C            2.83506310918607       -0.35402397941110       -1.26480054856933
C            4.25323267079175       -0.10746956263522       -0.83252270303313
C            4.84565899402486        1.12941882165934       -1.02914708922971
C            6.14941530136529        1.36614758964779       -0.62151203900024
C            6.88728210207584        0.36762435427264       -0.00242254623166
O            8.15799141492350        0.47907646577634        0.42608033621599
C            8.85286073773630        1.68653734591176        0.21432562795378
C            6.28491593576977       -0.90330902339713        0.21206646883479
O            7.07254083406454       -1.81321645517666        0.81860978458776
C            6.58179503932165       -3.11398131276118        1.03841531743436
C            4.97990563121522       -1.11588558967278       -0.20358152389200
C           -0.05912395690524       -1.44295757422103       -0.61943378218592
C           -4.04127132145519        2.89545540513683        0.48773407633280
C           -4.61030973454653        2.71547964900227        1.89273769240384
C           -3.58865590138911        4.34238703729778        0.28567141433335
H           -4.97346871252066        0.78601139526172       -1.19555479889155
H           -7.18561307635349        0.09303066284099       -1.60817862902488
H           -7.53171460391326       -1.33092505950685       -2.61842621930193
H           -6.05078385976103       -0.38725658855793       -2.90575314726413
H           -4.80094766454565       -4.08756351552279        2.28460416829047
H           -5.32793520739401       -5.25808866680913        1.05043389152571
H           -3.64610642708356       -4.67641676296861        1.05335068154622
H           -3.09543801313083       -2.50335211364732        1.93992405802215
H           -2.21082531289231       -0.24708607510135        1.88669106680780
H           -3.27746131936098        2.05191413906114       -1.94503893211730
H           -1.89443963426362        2.97171370371566       -1.36651874121098
H           -1.97846532219184       -0.06890088826086       -1.59424400268810
H           -1.31735644845855        1.03187063033800       -2.80512294302947
H           -1.03712953321039        2.86327200548838        0.67318788532592
H            0.34737852583485        1.88081525433617       -1.02868361758720
H            2.02768052012716       -0.60356471483435        0.73236366575031
H            2.04130524138789        1.06816598019348        0.15245252569803
H            2.60708426102881        0.24922261095344       -2.14540985091709
H            2.69901043103567       -1.40508832049823       -1.52194861440092
H            4.29684727017431        1.91949611247869       -1.51877254131565
H            6.58592676351558        2.33568801971666       -0.79678803457630
H            8.38134822546157        2.51940948677888        0.74474920589308
H            8.92513328105123        1.92494052234367       -0.85101891881715
H            9.85090742369843        1.52243459092362        0.61604693417734
H            7.39837858520082       -3.65826380891941        1.50870914404404
H            5.71734852409060       -3.10886568955511        1.71009931505430
H            6.31354392797190       -3.60560662478394        0.09822959344559
H            4.51802411318199       -2.07955375502154       -0.05558778092341
H           -0.12274212305457       -1.79882666660849       -1.65045911973621
H           -1.05668865087086       -1.46705723548582       -0.17655301841400
H            0.58521611877959       -2.11517621203359       -0.05879394837225
H           -4.84604256727261        2.70132905744836       -0.22733776522378
H           -5.34784461281899        3.49049336320163        2.08960213187435
H           -3.83014964299918        2.78393447602443        2.65036550843015
H           -5.09371001654797        1.74725759753068        1.99381306163209
H           -2.77621806055275        4.60254490870893        0.95940147105210
H           -3.27602477131082        4.53263833924390       -0.73833054891645
H           -4.42334741391776        5.00695011990710        0.49790479710713
H           -0.90660632433472        2.09275951871451        2.83980919780276
