  25
        -42.16431290
 C          3.4375177940        0.8380860472       -0.2284191607
 N          2.4267136350       -0.1773875945       -0.1313540828
 C          2.6149028449       -1.4859594355        0.0031496120
 N          1.4183966007       -2.1199905877        0.0929806469
 C          0.4427003060       -1.1777939492        0.0145349372
 C          1.0712082446        0.0640485241       -0.1279697496
 C          0.3426406412        1.2602540953       -0.2236272584
 O         -1.3465805105        3.2207545059        0.7368810101
 N         -0.9812415363        1.0781470114       -0.1684406511
 C         -1.8139207159        2.3007292995       -0.1765212377
 C         -1.6809672301       -0.1329685203       -0.0722509891
 O         -2.8768756194       -0.2009460346       -0.0940661905
 N         -0.8926380114       -1.2977001571        0.0415943558
 C         -1.5501348973       -2.5812516984        0.1917913863
 H          3.8566053463        1.0529764226        0.7562723598
 H          4.2392610334        0.5146076462       -0.8901415740
 H          2.9766530790        1.7438955568       -0.6173797901
 H          3.5665303684       -1.9774494447        0.0356442816
 H         -1.8186125220        2.6943174486       -1.1971251315
 H         -2.8264627438        2.0167183608        0.1167447157
 H         -0.5843998367        3.7023970162        0.3820876621
 H         -1.2573212174       -3.0485538560        1.1322467014
 H         -1.3047747596       -3.2352566339       -0.6455064400
 H         -2.6245120152       -2.4028664565        0.2000290877
 H          1.2974278771       -3.1175924343        0.1992474429
