25
 energy: -6.036791998007 xtb: 6.6.1 (8d0f1dd)
C            3.22687202424381        1.23327847191670        0.09039617397017
N            2.33052044532117        0.10444882955739        0.03612529385670
C            2.61344177738101       -1.25600478315440        0.03317797413897
N            1.42056128245805       -1.95458826844457        0.00158442992632
C            0.40366925584885       -1.07550258434488       -0.01071760936496
C            0.93642468244758        0.20670296423583        0.01119730785460
C            0.12825542921176        1.36430402684447       -0.00763484094850
O            0.51105508636915        2.53779099669965       -0.01048902855907
N           -1.25936123984390        1.03465270506848       -0.03178977951246
C           -2.20079837232131        2.14058983921934       -0.04866866561193
C           -1.81708255825619       -0.20682623841639       -0.04837612438409
O           -3.01811166487602       -0.38607010828690       -0.06983253634089
N           -0.94110914029813       -1.31038907408164       -0.03907919695520
C           -1.49646704904437       -2.64379016318774       -0.06165612053858
H            3.72347882053411        1.31680776849385        1.06429400223629
H            4.00423090753770        1.15061114540910       -0.67626550591338
H            2.64160963634651        2.13569145921403       -0.07677357703936
H            3.58053903065049       -1.69358309927882        0.04371088265583
H           -1.63535180433730        3.06933919725875       -0.02526151132288
H           -2.80568520990294        2.09616968403833       -0.95314576285230
H           -2.85218553725558        2.08057896861702        0.82125550755703
H           -1.20847451809648       -3.20460447903410        0.83040335609767
H           -1.18322235719559       -3.18483305843691       -0.95758654034558
H           -2.58091320316519       -2.53304188326810       -0.07595866864326
H            1.34296307095449       -2.95804642880443       -0.01172161268483
