25
 energy: 30.946532041939 xtb: 6.6.1 (8d0f1dd)
C            3.74944709227475        3.12217953754417        0.17494683008196
N            2.31112669572248       -0.70076274607182       -0.03396724572376
C            2.34095643570283       -1.99615755166184       -0.00664690221241
N            1.08278557559347       -2.55874674708226        0.00191770078516
C            0.20876448424514       -1.51805588163240       -0.02213932041959
C            0.98664200079498       -0.36522310456378       -0.03296912254629
C            0.33046670365153        0.91681594163261       -0.03468407241974
O            0.85120758611014        2.00560670175542       -0.03218184649980
N           -1.07216063496820        0.80864733222107       -0.03529172532198
C           -1.83798504852349        2.05130992008960       -0.03085302242786
C           -1.84231058634750       -0.33273784239558       -0.05874920918405
O           -3.05273272502680       -0.29610194054553       -0.08283400639514
N           -1.15283223673447       -1.54590696456166       -0.05331521498338
C           -1.91198363796985       -2.78460743613989       -0.07742057649115
H            4.19700771181652        3.30598978824156        1.12409310164974
H            4.30749087039184        3.13791264684271       -0.73181736192425
H            2.73276110677582        2.83477980593789        0.12168986402670
H            3.24324925257780       -2.57643828210420        0.01396702171069
H           -1.14556988547452        2.88741276107813       -0.01183896445640
H           -2.45705085000917        2.11120253182615       -0.92288364699722
H           -2.50006030410531        2.08299174763621        0.83429151438955
H           -1.67675019084758       -3.37135228220658        0.81184829779560
H           -1.65115675752648       -3.34991905974468       -0.97335440723721
H           -2.97214416114672       -2.53964002384395       -0.08985781528546
H            0.88870451528040       -3.54784509324440        0.00069797961184
