25
 energy: 30.103936906111 xtb: 6.6.1 (8d0f1dd)
C            3.81581166449658        3.24368236843716        0.15924771888050
N            2.27705776979601       -0.74020808178910       -0.01725239905920
C            2.29254922523108       -2.02797285899903       -0.00405275860273
N            1.03334165637108       -2.58807921437688       -0.01694680261783
C            0.17513725421124       -1.53944448362159       -0.03405861732427
C            0.95734300815788       -0.39060672495796       -0.03143892537844
C            0.33049109141690        0.90681549006030       -0.03023836407213
O            0.86831216241637        1.98953551699813       -0.00208938812091
N           -1.08014621364832        0.80198685100323       -0.04682821476567
C           -1.83439112251074        2.04834426112404       -0.03520575158447
C           -1.84944454725612       -0.33787619865629       -0.06413946651711
O           -3.05925578154567       -0.30772842997310       -0.08090403086050
N           -1.17838871852546       -1.55861328845692       -0.05709827465442
C           -1.94716634734289       -2.78524364189305       -0.08110934820248
H            4.24933106220615        3.52562413792536        1.09628061696560
H            4.44127846421931        3.25178298694578       -0.70677921091892
H            2.81782545291546        2.86743604945982        0.11236370103121
H            3.18576840301851       -2.61255551445101        0.01658611577016
H           -1.11084296996368        2.86256615224242       -0.01712335560456
H           -2.46938858760713        2.10876518164273       -0.92266803969537
H           -2.46637361582691        2.08717992072591        0.85224219579841
H           -1.75718769930382       -3.39055650852213        0.80811700365988
H           -1.73026309031788       -3.37160810655667       -0.97746281993936
H           -3.00055915857497       -2.49566222986493       -0.09486972955930
H            0.81608260800505       -3.57178972893992       -0.02386014778415
