25
 energy: 42.390845315675 xtb: 6.6.1 (8d0f1dd)
C            3.34295183704525        2.17032773350533        0.14794256775799
N            2.41513640129980       -0.29085593422477        0.03299821569733
C            2.54811021407564       -1.58153548358044        0.04396314776190
N            1.35822451380496       -2.27676918069755        0.01598119363392
C            0.38495289741125       -1.32039495712605       -0.01895691948615
C            1.05359716220980       -0.08974514955125       -0.01141942087556
C            0.26481436945626        1.12198569409869       -0.06250820803335
O            0.64036623814785        2.26017146874640       -0.14681019049470
N           -1.11768680811949        0.88706497387224       -0.04864451519187
C           -1.97543117864879        2.07565933429580       -0.03617980622542
C           -1.76367755789256       -0.31549443420220       -0.06425480344517
O           -2.97426528538631       -0.35356940648285       -0.08130388362739
N           -0.97523367657810       -1.47489217602638       -0.05933511179580
C           -1.73908515291731       -2.70731627570705       -0.07912068750789
H            3.81032738792701        2.31715391720020        1.06317216228268
H            3.84977298989950        2.18629856524553       -0.76339352408476
H            2.32457117629187        2.44629267842025        0.13127747287379
H            3.47780392564441       -2.12167575758006        0.04091148739591
H           -1.32811969012780        2.94184225467672       -0.02391825594819
H           -2.60047998122721        2.11391731700429       -0.92523417543105
H           -2.58462756663040        2.09281955583630        0.86184071337013
H           -1.58046774046474       -3.31396946483099        0.81261973435245
H           -1.55221664137098       -3.29980553230958       -0.97448227238979
H           -2.79227675052547       -2.38436355764822       -0.09448227995327
H            1.24850455131705       -3.28131715118841        0.03123905730212
