25
 energy: 29.926971139268 xtb: 6.6.1 (8d0f1dd)
C            3.83793459153628        3.21093798273907        0.15856863625569
N            2.26902709873513       -0.72681683236813        0.00377198014511
C            2.30810597196906       -2.01664821989497        0.00349178885022
N            1.05331159341793       -2.58626772480866       -0.01934451016968
C            0.17983392718483       -1.54612390374486       -0.03364458531549
C            0.94501895360501       -0.38943362415747       -0.01906040758967
C            0.32395569688983        0.91106584009036       -0.02241197499114
O            0.86801010537798        1.98912758900682       -0.01132500819251
N           -1.08065605548027        0.80969783582073       -0.03900692662862
C           -1.84140614349691        2.05231970897157       -0.03446676149263
C           -1.84723127022449       -0.33357544983726       -0.06107229351738
O           -3.05670633943884       -0.29556586882394       -0.08197463348969
N           -1.17566027506125       -1.55654085277238       -0.05722469619557
C           -1.93594597054156       -2.78724770670856       -0.07986536212599
H            4.25704112275255        3.49385829324399        1.10035633545673
H            4.44938711705976        3.23290956390431       -0.71826295128410
H            2.82057026457268        2.89048313008373        0.09725402667359
H            3.20586329934707       -2.59990737548556        0.01893945171849
H           -1.13494657805115        2.87931537214048       -0.01622184851468
H           -2.46590989437954        2.10757744529438       -0.92550903889681
H           -2.48710968565644        2.08645272875254        0.84250919254832
H           -1.72740215762205       -3.38355479253831        0.81037809209884
H           -1.70225887295971       -3.36605445554113       -0.97545264977539
H           -2.99110002123826       -2.51669465246647       -0.09212376418192
H            0.84048782667475       -3.57028524215612       -0.02126817919112
