25
 energy: 7.051808123171 xtb: 6.6.1 (8d0f1dd)
C            3.17682143050055        1.41196250432970        0.09744521279510
N            2.42249811015592        0.08385900352229        0.05626004971506
C            2.66151547909320       -1.32977004741956        0.05696771677302
N            1.44488152225551       -2.03040320694329        0.01721908113435
C            0.43624939815827       -1.13912392808636       -0.01026816319173
C            1.00155521986696        0.13694296508180        0.01022030375297
C            0.17275134938254        1.28224286026517       -0.01959770540905
O            0.54489204390599        2.45467336065883       -0.04534610999595
N           -1.22073945407614        0.97957536778454       -0.03765139527502
C           -2.12762110559921        2.11742345090810       -0.04576083102050
C           -1.79392973412481       -0.24917341404504       -0.05583459492749
O           -2.99815255001610       -0.41343496205661       -0.08004718667041
N           -0.92652982168606       -1.35954448543384       -0.04668107369961
C           -1.56724581064830       -2.65768199789470       -0.06679292281701
H            3.70626115159032        1.61531268019994        1.03959425901612
H            3.94620752365687        1.48275914086618       -0.68830563605141
H            2.44186855799190        2.19486344653736       -0.03826675451068
H            3.59255870387346       -1.83908114712149        0.04644291500124
H           -1.52957607790573        3.02376261323937       -0.02460835426221
H           -2.73888391389212        2.10668836794888       -0.94627757346020
H           -2.76480614629933        2.08800627329070        0.83406352872676
H           -1.33171013886124       -3.23969609096954        0.82577771543903
H           -1.30537030775145       -3.22249778471539       -0.96303314765221
H           -2.64472725211924       -2.46917126730756       -0.08091485198816
H            1.28928747927626       -3.03228693990090        0.00280678309846
