25
 energy: 30.005458387476 xtb: 6.6.1 (8d0f1dd)
C            3.85560868562047        3.18203122224237        0.16195719346725
N            2.27461355636438       -0.71628813141784        0.00361369698545
C            2.31994683314719       -2.00410189364598        0.00856143354367
N            1.06193896263856       -2.57559863630572       -0.01357133813948
C            0.18294466117587       -1.54094969767417       -0.03050128256001
C            0.94822694436192       -0.38556144777076       -0.01784574301618
C            0.32441151072483        0.91031302334018       -0.02219460360769
O            0.86841036463695        1.98872643034523       -0.02112425179686
N           -1.08400028307139        0.80813777511549       -0.03760785540135
C           -1.84422878731739        2.05204822332798       -0.03412414811053
C           -1.85059183600036       -0.33378498532440       -0.06009407981115
O           -3.06059918840706       -0.29823796348704       -0.08291902411158
N           -1.17588746998139       -1.55394207300994       -0.05494209307888
C           -1.93283951231195       -2.78891220154168       -0.07949824200582
H            4.27179589671133        3.45031318582865        1.10951497004547
H            4.46670453689958        3.19481032754758       -0.71482394167863
H            2.82361758630806        2.91661075954115        0.08808458154444
H            3.21774773570015       -2.58969943840309        0.01725981828761
H           -1.14134762182367        2.88199375512068       -0.01504282220791
H           -2.46338054562490        2.11025004064476       -0.92699749227108
H           -2.49684518753284        2.08988671532503        0.83799046915947
H           -1.71650971877721       -3.38511701982049        0.81006527015983
H           -1.69370575993714       -3.36824167708808       -0.97447572480559
H           -2.99018761766166       -2.52777422231050       -0.09095526355783
H            0.85374763073190       -3.55992714405497       -0.01755368372215
