25
 energy: -42.443433629683 xtb: 6.6.1 (8d0f1dd)
C            3.28990464887709        1.27620994665941        0.12757868322056
N            2.39627989806474        0.14746785087602        0.07330790632522
C            2.72905252164234       -1.15040083976768        0.07999227663034
N            1.61078892368771       -1.91493805142182        0.07060859514138
C            0.50463709337977       -1.09321250555285        0.04590750899957
C            1.01003873237115        0.23228004813089        0.04566447605183
C            0.17929722645636        1.36724326055359       -0.01007607260000
O            0.53894145692113        2.54832289037481       -0.01257425269688
N           -1.18081273806798        0.99852105707512       -0.07164682521560
C           -2.16604222742935        2.06542855989392       -0.14651716529546
C           -1.70738722709168       -0.25817632639510       -0.06444070260056
O           -2.89847987008435       -0.45268391814739       -0.13474202120619
N           -0.81164858914093       -1.38158824144338        0.01943946742121
C           -1.45962011649602       -2.58455446457320       -0.10360317422182
H            3.89575481605734        1.25572689258000        1.03871518812631
H            3.95173878200747        1.28514109029404       -0.74208989913303
H            2.68871867246131        2.18473321398037        0.13144850320222
H            3.73317555693926       -1.52118419652523        0.12509762761955
H           -1.62270532113458        3.00553466544593       -0.12762664439707
H           -2.74167515876892        1.98040783114233       -1.06611005519027
H           -2.85537080293105        1.99337777218868        0.69381315594849
H           -0.90624600983698       -3.48749613322081       -0.07017425827072
H           -2.44484003187878       -2.51876307022846       -0.53590674630376
H           -3.74750825412037       -3.22520693445704        0.29637553791293
H            1.62672063328311       -2.92202989939060        0.07148137202793
