72
 energy: -99.406586157999 gnorm: 0.001552083636 xtb: 6.6.1 (8d0f1dd)
N           -1.91121651357934        2.80668579217014        2.23672158293088
C           -1.84925481094831        2.14076884947983        1.18267512318514
C           -2.99417307090354        1.92832312264200        0.23152648901773
C           -3.46187266949841        0.48231434820501        0.31599809147408
C           -4.43339509465767        0.01670089627772       -0.57217428621292
C           -4.89124957033684       -1.28972744577508       -0.52658208155760
O           -5.83661319387154       -1.81263499852312       -1.33374634787681
C           -6.48698499860965       -0.97995856493470       -2.26506927154950
C           -4.35064719970566       -2.18637543950623        0.43411472470918
O           -4.84465059597212       -3.44072483278599        0.40672991068058
C           -4.44565302561586       -4.35063894837374        1.40594353203315
C           -3.38236483286186       -1.71983789336653        1.30872572228939
C           -2.94837977179132       -0.40092741479820        1.25252360531897
C           -2.43388490595043        2.20244762477781       -1.18904738705353
C           -1.49602658536939        1.10382348413026       -1.72159715293570
C           -0.16696363030671        1.09232299881349       -1.06991159199428
N            0.49027907124540        0.00702960149319       -0.67886671160034
C            1.86703079517242        0.09926320451967       -0.25318888135999
C            2.83767407650953       -0.34965363042615       -1.36230758422992
C            4.25734690888789       -0.14599739232579       -0.91281890382570
C            4.89615278704920        1.06482655832519       -1.12520430696576
C            6.19692295823860        1.26726477538991       -0.69107895023435
C            6.88486581351664        0.26055702941201       -0.02898883167675
O            8.14655903500114        0.34291862957770        0.43142545821418
C            8.87705038952122        1.53056419000923        0.22751373865576
C            6.23517153178912       -0.98426500928265        0.19934615397260
O            6.97551609161232       -1.90570474724179        0.84675229864860
C            6.43023102318906       -3.17956205714242        1.09387535885870
C            4.93373119250888       -1.16253118042587       -0.24273013983397
C           -0.10269987699109       -1.30804523380709       -0.72487202412464
C           -4.20436809168084        2.86556329577891        0.51767235059382
C           -4.86029230584972        2.53569249199064        1.85641549264672
C           -3.83838738929111        4.34659286634332        0.47148956818126
H           -4.85045150916341        0.69216110969706       -1.30019644336717
H           -6.99503411101281       -0.14581622699490       -1.77171684869493
H           -7.22567718823702       -1.61151351277652       -2.75456989221028
H           -5.78961371947398       -0.59343988597526       -3.01540912852897
H           -4.68888595714639       -3.97619937745643        2.40486878484168
H           -5.00821566987914       -5.26228566769569        1.21395690527038
H           -3.37428115522523       -4.56880916570783        1.34790317975388
H           -2.96289978024744       -2.37565173355937        2.05266413105297
H           -2.21811580830724       -0.06711956015889        1.97320207889736
H           -3.26974655988551        2.29574139418424       -1.88138655291839
H           -1.90200225222023        3.15445647418197       -1.18290481257412
H           -1.98894569859054        0.13589622020996       -1.64799216366447
H           -1.33483034278409        1.31587594193726       -2.78666371750336
H           -0.92162312607196        1.66054773592347        0.81078441104038
H            0.38434476542698        2.02126434341561       -1.05106541124944
H            2.01241704740112       -0.52450392043313        0.63291275846862
H            2.09389652619862        1.13275766604850        0.01649082307262
H            2.64314535446113        0.24301086280510       -2.25785348456384
H            2.66393317066073       -1.40004202830219       -1.59852614998838
H            4.38606023417696        1.86085828486577       -1.64615440238865
H            6.67037004128892        2.21681920723893       -0.87900764770603
H            8.40501521098388        2.38210078553509        0.72697693308225
H            8.99461929074875        1.75024536508601       -0.83782235315955
H            9.85531950780435        1.35062247365441        0.66897716426689
H            7.21379610535767       -3.73910355009224        1.60100602869696
H            5.55082566828729       -3.12068644691162        1.74331539961732
H            6.16560250568700       -3.69058725297173        0.16296995000072
H            4.43526854141296       -2.10569150054328       -0.08200741967404
H           -0.26867865073085       -1.63133501300516       -1.75462199411040
H           -1.05974702179844       -1.31382202048286       -0.19677411501375
H            0.56370012337277       -2.01801584845902       -0.24194544459859
H           -4.93965501708846        2.67761394301664       -0.27262039014519
H           -4.16806315773696        2.73277099788251        2.66848102878612
H           -5.16531535443367        1.49285152319795        1.89802158246863
H           -5.74184927028905        3.15644018847959        1.99321337495973
H           -3.08404773014794        4.57425365163438        1.21835155614268
H           -3.47510527087984        4.64431988130333       -0.50869779370682
H           -4.72220254378075        4.93916539250160        0.69263004496929
H           -1.06626514158877        2.90191382060669        2.79121012459956
