72
 energy: -99.252023844232 gnorm: 0.002712211657 xtb: 6.6.1 (8d0f1dd)
N           -1.97618849120934        2.99439323227697        2.20396891731415
C           -1.91255213293608        2.24503416058137        1.20672173579074
C           -3.04197414866664        2.00930620113375        0.24147504292479
C           -3.52215256714288        0.57089029259089        0.35848322632224
C           -4.42500713875465        0.05927253046332       -0.57391698005229
C           -4.87890390650051       -1.25015579134546       -0.51162134416940
O           -5.75434967701128       -1.82538867325188       -1.35893464894213
C           -6.37988617333703       -1.03449025350224       -2.34535236175066
C           -4.38302401709913       -2.08358272048605        0.53138607916555
O           -4.80356606991620       -3.37579900942935        0.54086406353744
C           -4.49568470926248       -4.16513893865531        1.53142562256073
C           -3.50122913619513       -1.56047692812134        1.45467501657963
C           -3.07269027333101       -0.26274555281886        1.38834425296469
C           -2.45090990436586        2.24564826959134       -1.17364313872623
C           -1.52597960212853        1.12111405523265       -1.67439866753443
C           -0.20593046427949        1.09617595348608       -1.00593461356439
N            0.41857273396208        0.00839364316354       -0.57027643431961
C            1.80078916079346        0.07880183656666       -0.15875413790159
C            2.74975234462853       -0.40228231438024       -1.27378428310822
C            4.17895237441030       -0.20210559328583       -0.85421733816535
C            4.81109873069787        1.01154630565115       -1.07100686099804
C            6.12207555749651        1.21164189602546       -0.66782885344684
C            6.82784843533931        0.19917412191846       -0.03398384342492
O            8.10184777663121        0.27824719944776        0.39286070177372
C            8.82949953686893        1.46384715113741        0.16839725331065
C            6.18503689717602       -1.04795271574239        0.19978499727531
O            6.94263668639496       -1.97502451250854        0.81889609859878
C            6.40489218642960       -3.25201353002624        1.06641846826966
C            4.87276776283167       -1.22363473864819       -0.21040293692730
C           -0.20823596125546       -1.29163857788105       -0.57292893188828
C           -4.25859184588453        2.95301929193157        0.47615288849668
C           -4.92655326148739        2.67803807174542        1.82134980207082
C           -3.89681266809901        4.43205336612788        0.37124431815049
H           -4.78732287327123        0.70015960009443       -1.36098501311757
H           -6.92001641727851       -0.19654713340658       -1.89781012084403
H           -7.08569692917714       -1.69552703721839       -2.84409294701386
H           -5.65697445674978       -0.66028826980829       -3.07605103404003
H           -4.06862676536528       -3.76383026906690        2.43924996324539
H           -4.84276069080783       -5.17732163391111        1.44468999039833
H           -2.41579570621407       -4.36547741760818        1.05357037540068
H           -1.70488241905759       -4.13065515590988        0.78879662624237
H           -2.40450933924971        0.12502495933808        2.14249475051335
H           -3.27212813564875        2.34842228208321       -1.88228017334761
H           -1.89879956723788        3.18621952638975       -1.17101532468298
H           -2.03514225537667        0.16238720229210       -1.59190144249024
H           -1.34757060705858        1.31318835599496       -2.74059753917921
H           -0.99601525921097        1.70578026535249        0.89846646182887
H            0.36415091380507        2.01369057783015       -0.99930088071180
H            1.94321364628358       -0.53630908467988        0.73340019630139
H            2.05047951282551        1.11114776231906        0.09476978405525
H            2.54527323584388        0.17401529222184       -2.17804252049886
H            2.56236260253142       -1.45552674176687       -1.48558048316504
H            4.28740084774861        1.81188207946219       -1.57158798703084
H            6.58925459169479        2.16393376419228       -0.85764290274517
H            8.38065180279346        2.31462781892968        0.69006037682170
H            8.90785636411713        1.68917699570859       -0.89935395254789
H            9.82284479997107        1.27721381732067        0.57173118157756
H            7.20287653788915       -3.81718549367750        1.54397316376766
H            5.54457180251959       -3.20135965728189        1.74158020137669
H            6.11358032967427       -3.75205446837157        0.13750640897487
H            4.37916632347000       -2.16850573764419       -0.04513927611695
H           -0.37487418934573       -1.64950717990934       -1.59126570300757
H           -1.16789684105882       -1.25494379017660       -0.05037041197581
H            0.43707475485385       -1.99872573151595       -0.05821445490049
H           -4.98460091085547        2.72607811909141       -0.31317886467860
H           -4.24840665671966        2.92628596468424        2.63136038295686
H           -5.21574327834489        1.63355192435435        1.91108992821527
H           -5.81982342366953        3.28986250224381        1.91650903825378
H           -3.14826666095753        4.69110867331036        1.11338034670920
H           -3.52772353485981        4.69081828792904       -0.61763994347312
H           -4.78417818568636        5.02942509581662        0.56260358252852
H           -1.14203540062236        3.09973572849462        2.77261994880835
