  25
        -42.21162869
 C          3.3234707789        0.5585036930        0.1143869085
 N          2.2925917094       -0.2933404379        0.0417574559
 C          2.3413468526       -1.6434497844       -0.0663509779
 N          1.0703468646       -2.1591466412       -0.0872317831
 C          0.1926431426       -1.1354850497        0.0037976004
 C          0.9404144743        0.0538470412        0.0625487851
 C          0.2909312254        1.2846428862       -0.0036685634
 O          0.8919572627        2.4664883906       -0.1180642555
 N         -1.0762323146        1.2538290719        0.0085941705
 C         -1.8370153914        2.4923656660       -0.0228470154
 C         -1.8490775453        0.0880875903        0.0348333894
 O         -3.0493793426        0.1360144162        0.0613768563
 N         -1.1619418312       -1.1345006590        0.0099010816
 C         -1.9222106634       -2.3676492924       -0.0026755674
 H          3.2045764372        1.5339246803        0.5349588190
 H          4.3106906610        0.1891869527       -0.0436839101
 H          1.8483780371        2.3484717205       -0.2660260887
 H          3.2364069047       -2.2228980036       -0.1206737770
 H         -1.1521952762        3.3338640006       -0.0057611794
 H         -2.4496514852        2.5241774924       -0.9245106684
 H         -2.5034932645        2.5292835169        0.8390346103
 H         -1.6734255946       -2.9754327666        0.8680601933
 H         -1.7260551685       -2.9285882486       -0.9173708142
 H         -2.9785764576       -2.1050099183        0.0344820019
 H          0.8569132437       -3.1415217171       -0.1540051629
