  72
        -99.38947761
 N         -1.3898285087        2.2797104276        2.4223669854
 C         -1.5364259707        1.5768499419        1.3999396297
 C         -2.7376303731        1.6519608776        0.4978315368
 C         -3.3836529971        0.2817073115        0.4001492076
 C         -4.3145403240        0.0137177853       -0.6027678749
 C         -4.9816521838       -1.1998041300       -0.6666626421
 O         -5.9002160012       -1.5349710362       -1.5915782846
 C         -6.2804627048       -0.5910548025       -2.5648522930
 C         -4.7119754497       -2.2005610517        0.3097760822
 O         -5.4129952941       -3.3399005266        0.1799859012
 C         -5.2382154500       -4.3695097453        1.1265551372
 C         -3.7795046269       -1.9277947191        1.3010402912
 C         -3.1298707508       -0.7040916609        1.3460866824
 C         -2.1897888526        2.1102906683       -0.8796072476
 C         -1.3616875129        1.0711322525       -1.6523953002
 C          0.1614824318        1.2771658106       -1.5831455402
 N          0.7684342911        0.5959475500       -0.4516021487
 C          1.8512752185        1.3117646156        0.2212898870
 C          3.0533744350        1.5425265584       -0.6354340827
 C          4.2568300834        0.8600010657       -0.5953218922
 C          5.3034994217        1.2561023703       -1.4768902587
 C          6.5241312779        0.6336694914       -1.4722778761
 C          6.7823700017       -0.4304785889       -0.6024272200
 O          7.9281873575       -1.1063485764       -0.5122735804
 C          9.0252108339       -0.7461097351       -1.3221929018
 C          5.7441529531       -0.8634473415        0.2858117882
 O          6.0856258087       -1.9046393901        1.0709841501
 C          5.1443018542       -2.4144451231        1.9853281602
 C          4.5272493672       -0.2271010692        0.2839377698
 C          1.0491416577       -0.7996622710       -0.6888717530
 C         -3.8316980364        2.6470358440        0.9886352048
 C         -4.3889103027        2.2443072074        2.3515660472
 C         -3.3555744176        4.0960411781        1.0395101989
 H         -4.5276814327        0.7687307494       -1.3407019700
 H         -6.7034829809        0.3080958203       -2.1066808356
 H         -7.0439463872       -1.0821623525       -3.1651723699
 H         -5.4383128765       -0.3145837728       -3.2069953712
 H         -5.5125940161       -4.0379994772        2.1323199918
 H         -5.9070669176       -5.1693295231        0.8151525882
 H         -4.2081454298       -4.7387532433        1.1312873954
 H         -3.5613259061       -2.6630189087        2.0584283595
 H         -2.4337730978       -0.5167425523        2.1488442452
 H         -3.0411858140        2.4088425800       -1.4908014508
 H         -1.5868118371        3.0046453682       -0.7224188694
 H         -1.6092702205        0.0666753364       -1.3071129104
 H         -1.6443570960        1.1267349839       -2.7043581984
 H         -0.7784574480        0.8774542648        1.0231549686
 H          0.3743990062        2.3451708986       -1.5023420639
 H          2.1066203891        0.7415876341        1.1177323648
 H          1.4478703607        2.2812719201        0.5365172189
 H          2.9502890069        2.3172970977       -1.3818356175
 H          0.6011577385        0.9189949978       -2.5249342877
 H          5.1245831644        2.0750886838       -2.1555392320
 H          7.2919349609        0.9710129747       -2.1505278534
 H          9.3257921128        0.2905030370       -1.1488607213
 H          8.8035499797       -0.8914775294       -2.3838468542
 H          9.8356766156       -1.4106107473       -1.0279038042
 H          5.6405037577       -3.2445122676        2.4837426216
 H          4.8617601367       -1.6626674402        2.7289510411
 H          4.2488838782       -2.7826827136        1.4745237269
 H          3.7530746696       -0.5572719526        0.9558894790
 H          1.8981747960       -0.9499688327       -1.3718201470
 H          0.1698284888       -1.2723499526       -1.1248670059
 H          1.2736059295       -1.2925416352        0.2570444889
 H         -4.6495497217        2.5834376553        0.2604913272
 H         -3.6156795889        2.3316538091        3.1092968412
 H         -4.7606392198        1.2221284591        2.3408421238
 H         -5.2104631552        2.9035784834        2.6199858499
 H         -2.4942057410        4.1852367690        1.6951152975
 H         -3.0998092860        4.4752629058        0.0537214237
 H         -4.1525328953        4.7189696608        1.4376853764
 H         -0.5289522509        2.1873838917        2.9511970953
