  25
        -42.19313322
 C          3.2351569518        1.0432171093        0.1154078572
 N          2.3260457840        0.0707507287        0.0435328370
 C          2.5683612048       -1.2545489367       -0.0641762469
 N          1.3877226839       -1.9526785490       -0.0919762555
 C          0.3734969263       -1.0800871607        0.0024300181
 C          0.9287245801        0.2162105766        0.0577232358
 C          0.0790759913        1.3192672176       -0.0053565762
 O          0.4387961686        2.5942901793       -0.1046994985
 N         -1.2600590606        1.0626841792        0.0073180507
 C         -2.2160659893        2.1598231464       -0.0393487513
 C         -1.8403545650       -0.2105727145        0.0350025186
 O         -3.0288569781       -0.3535742616        0.0589437742
 N         -0.9627656407       -1.2982425263        0.0157993768
 C         -1.5113724037       -2.6407571092        0.0033447722
 H          2.9721578117        2.0161922869        0.4797066895
 H          4.2746222709        0.7733542839        0.0527291911
 H          1.3879998313        2.6922733013       -0.2845965135
 H          3.5379755456       -1.6979692107       -0.1178468892
 H         -1.6824427699        3.1040995766       -0.0294833084
 H         -2.8195138485        2.0784722348       -0.9431385949
 H         -2.8823808558        2.0941820299        0.8200387672
 H         -1.1696770147       -3.1980593521        0.8758313359
 H         -1.2243226225       -3.1623434316       -0.9101457645
 H         -2.5962294861       -2.5537527085        0.0377253102
 H          1.3274648692       -2.9569557510       -0.1540957711
