  25
        -42.13588601
 C          3.3401098111        1.3911090633        0.0136914073
 N          2.4501569817        0.2591053117        0.0010255988
 C          2.7895551173       -1.0227799134       -0.0044911674
 N          1.6907791073       -1.7966528700       -0.0059151406
 C          0.5887671456       -0.9791063658       -0.0002703127
 C          1.0850777919        0.3310301539        0.0042137794
 C          0.1706219035        1.4518796554       -0.0025541119
 O          0.4917909231        2.6234325714       -0.0122641901
 N         -1.1452911524        1.0235373894       -0.0000648104
 C         -2.1859024577        2.0308364323       -0.0020029431
 C         -1.5917696502       -0.3207974231        0.0034861282
 O         -2.7851979227       -0.5307736514        0.0081910850
 N         -0.6748332838       -1.3203985898       -0.0005144976
 C         -3.6645068733       -3.3361097235       -0.0024195474
 H          3.8722235151        1.4437765528        0.9642056914
 H          4.0677695044        1.3108567170       -0.7934474190
 H          2.7487638944        2.2978666530       -0.1118823055
 H          3.7980673489       -1.3905262804       -0.0084384249
 H         -1.7137791163        3.0113926730        0.0036845591
 H         -2.8118473245        1.9156282258       -0.8882352123
 H         -2.8206122887        1.9085516224        0.8769739004
 H         -3.4908272499       -3.8552539438        0.9186567374
 H         -3.4989710317       -3.8369413017       -0.9356096871
 H         -4.0008690892       -2.3154542493        0.0093106492
 H          1.6645195975       -2.8066474185       -0.0095965556
