25
 energy: 50.047269435989 xtb: 6.6.1 (8d0f1dd)
C            3.25222097319480        1.58634396060280        0.16373625806970
N            2.62105114948829        0.29369690066610        0.02218803236828
C            3.07465586496672       -0.94672745107766        0.15589641767682
N            2.04097177318329       -1.83350343189129        0.11421477204431
C            0.85134659093675       -1.13290345454191       -0.03315972735857
C            1.27081009393422        0.20204401084854       -0.11964328423759
C            0.35519621119010        1.29210893147338       -0.21134529950690
O            0.67000847018076        2.47153048781518       -0.31556841651314
N           -0.92591480840494        0.85548234679012       -0.12543133410692
C           -1.95770028796847        1.87359565849502       -0.05003097546745
C           -1.33168244392770       -0.50149897734685       -0.04718926118410
O           -2.53225517651958       -0.61002642382132        0.03714251013523
N           -0.41253196365958       -1.52087196830998       -0.03753482850571
C           -3.50810620104713       -3.09024877755575       -0.14794031163824
H            4.18296152221409        1.50737828161610        0.71265899114659
H            3.41950553910943        2.04467651889751       -0.81085593287895
H            2.56059719133312        2.24631757433620        0.69690931586321
H            4.10226574786219       -1.22935541959190        0.22826493028024
H           -1.43444757442407        2.82777949309987       -0.07619914461540
H           -2.64117165944257        1.77137018031233       -0.88826752385139
H           -2.51523981445318        1.76743560192113        0.87967138378045
H           -3.37531558379966       -3.73617975813717        0.67928611663179
H           -3.45915480971317       -3.44642108561437       -1.14287173646263
H           -3.61672417156008       -2.05182665045070        0.02030866514732
H            2.15146249993912       -2.83422585503095        0.20938770577139
