25
 energy: 37.806244220943 xtb: 6.6.1 (8d0f1dd)
C            3.66533401547620        1.89806479049352        0.11249132994922
N            2.96873278606317        0.63737643894214        0.08405329387280
C            3.51656811753041       -0.56888778994422        0.09882735695788
N            2.55351036318119       -1.51323901019903        0.06325712914239
C            1.32556238755548       -0.88237912988793        0.02401082941283
C            1.60907829424182        0.49032444701750        0.03773618989128
C            0.52359718144158        1.44112446365837        0.00680247892895
O            0.65475234579934        2.65781034814979        0.01501677744323
N           -0.69507452640550        0.80386251991133       -0.03259048070747
C           -1.89067750750392        1.62707646132715       -0.06119433829323
C           -0.92287317986391       -0.61070129451024       -0.04685952550646
O           -2.06457757988239       -1.00495941405910       -0.08474210234180
N            0.15010313380528       -1.44082740729950       -0.01639850151836
C           -4.92233189360533       -3.60152893566172       -0.18130443204891
H            4.26111361674667        1.98262209877152        1.02205245324865
H            4.32457921198422        1.98744515687841       -0.75144657154886
H            2.92396106115489        2.69741592548182        0.08820141552303
H            4.56881784329413       -0.76734343657824        0.13419822102117
H           -1.58258098460126        2.67028802528828       -0.04011988024622
H           -2.46343480373605        1.41775101556517       -0.96497315894176
H           -2.51776265376049        1.39759927107507        0.80062963002952
H           -5.26258698703808       -4.07277096229339        0.71619023690603
H           -5.37209656282734       -3.86113023127565       -1.11628110092097
H           -4.12987514722241       -2.88426281147048       -0.14550481614319
H            2.69037577314478       -2.51170175063656        0.06498147808480
