25
 energy: 52.738989690278 xtb: 6.6.1 (8d0f1dd)
C            3.22384234849645        1.51432539553379        0.15731095823853
N            2.55854683255201        0.23808532269884        0.00813658576002
C            2.98403562980709       -1.01478033710157        0.13512497008590
N            1.92591582890498       -1.87370433735154        0.09918035112683
C            0.75036310230220       -1.14767523162864       -0.04361680024218
C            1.20291378630278        0.17978970927031       -0.12593503690132
C            0.31589068265000        1.29913612261503       -0.17411932870287
O            0.64474331591779        2.47877674600234       -0.23992451476064
N           -0.97358299249901        0.88403501036845       -0.10873668266844
C           -1.99302549861164        1.91511440576828       -0.05228699069557
C           -1.41379666416474       -0.45758276826787       -0.04562080094076
O           -2.62181662950723       -0.50692160131921        0.03593443286769
N           -0.52584081521369       -1.51075190598788       -0.04247376684346
C           -3.22101154422111       -3.05478834113068       -0.14147655839304
H            4.09012917458716        1.43525867913819        0.80593647314790
H            3.53878706930033        1.91439045819135       -0.80911584892030
H            2.49886744904829        2.21586478369185        0.58562240458145
H            4.00587492483588       -1.32477209612632        0.20244624488976
H           -1.44342722867544        2.85309079577582       -0.06309211205625
H           -2.65467253505223        1.83157302732532       -0.91089311640949
H           -2.57817023422379        1.81684721390606        0.86083393537569
H           -3.01222695542445       -3.66047241958385        0.70004818575449
H           -3.07856549829472       -3.39618106470351       -1.13224826935078
H           -3.44755728757155       -2.03575243178569        0.01151110728979
H            2.01538067541097       -2.87623454016948        0.18730521972440
