25
 energy: 38.198697893520 xtb: 6.6.1 (8d0f1dd)
C            3.56175905849348        1.81308500225398        0.11385756327050
N            2.87888894003947        0.54709636336022        0.06902191951188
C            3.39945650978310       -0.66883626673443        0.11345349487039
N            2.41407813866634       -1.59301942440031        0.07676183953430
C            1.19824180465821       -0.93567484687052        0.00741813998156
C            1.52125783211130        0.42523418373391       -0.01026926000589
C            0.47778925643584        1.41186094477701       -0.06498459504058
O            0.66522570873406        2.62270947580752       -0.09200269443347
N           -0.76062628860684        0.82286314524908       -0.06691307824648
C           -1.91180332010197        1.70197439477415       -0.06496284200760
C           -1.04324718080619       -0.58336303454437       -0.04032143698962
O           -2.20236796580477       -0.92588031762634       -0.03519141190355
N            0.00091363038226       -1.44884133644033       -0.01437567149850
C           -4.51143023496481       -3.53193257748119       -0.18439072916231
H            4.29131080618172        1.82848332950302        0.92228974689123
H            4.05428678868761        2.01680154584613       -0.83592250265183
H            2.81047623942894        2.58864867313001        0.27268465036308
H            4.44501869870976       -0.88932582809470        0.17452118524742
H           -1.53770332203104        2.72416595932549       -0.06552615542395
H           -2.51951504479456        1.51160946985424       -0.94847735585676
H           -2.51425738018107        1.51154092605548        0.82309512409632
H           -4.74041037034158       -4.08908195491909        0.69949927828719
H           -4.84455734327494       -3.85376568046258       -1.14862111676584
H           -4.06067357818533       -2.57046925327050       -0.08763923474085
H            2.53422899244779       -2.59337575518823        0.11577767526842
