25
 energy: 53.426486768661 xtb: 6.6.1 (8d0f1dd)
C            3.21578308966815        1.48040194424030        0.14918061569831
N            2.52797612208109        0.21480095175076       -0.00101447480014
C            2.93905871968163       -1.04486670275707        0.11419356465859
N            1.86835939315097       -1.88936604387832        0.08486341678990
C            0.69957415119824       -1.15016287362454       -0.04846384182933
C            1.16925148705651        0.17265344092701       -0.12459244764088
C            0.29581253913191        1.30250193854451       -0.15200724759593
O            0.63082340537611        2.48222994801853       -0.20253789538781
N           -0.99985887764524        0.90181969448225       -0.09618515760441
C           -2.01281456715788        1.94109244148882       -0.05201992023016
C           -1.45848648865541       -0.43076365334685       -0.04541306946104
O           -2.66970055599350       -0.45827917425937        0.02935136131044
N           -0.58342710925341       -1.49680969526049       -0.04636670144578
C           -3.05943459641733       -3.04072189548498       -0.13807525999814
H            4.04089430981387        1.40402028724714        0.85246272574319
H            3.60937764045311        1.84370395694102       -0.80409789698602
H            2.48018861519207        2.21083054913538        0.51120147982543
H            3.95726585370612       -1.36962476895586        0.18135325944046
H           -1.46165068527070        2.87797677173499       -0.05922566282424
H           -2.66708188562481        1.86014789496711       -0.91737266809424
H           -2.60838526423642        1.84772735945212        0.85475658359143
H           -2.83189967761097       -3.62009579877890        0.71698515579050
H           -2.88627464061024       -3.38428156663687       -1.12323090997668
H           -3.35082506138769       -2.03633739740862       -0.00270413223537
H            1.94773272106818       -2.89245964271570        0.16845856572447
