25
 energy: 51.625370832814 xtb: 6.6.1 (8d0f1dd)
C            3.23470361987801        1.55162465999858        0.16410170270187
N            2.59005233096580        0.26529678754078        0.01409473247455
C            3.02993014509986       -0.98112383854359        0.14706063880231
N            1.98429540428277       -1.85466235058909        0.10839647206846
C            0.80141035616175       -1.14228694035584       -0.03835274722816
C            1.23705527728750        0.18921073669970       -0.12428905769172
C            0.33584846270058        1.29446570922868       -0.19270024492410
O            0.65763629774195        2.47429448768148       -0.27593715441403
N           -0.94889151804805        0.86798456905550       -0.11802735267617
C           -1.97419286747431        1.89236282505774       -0.05208468736371
C           -1.37143924866631       -0.48106810422986       -0.04593216116856
O           -2.57574082976514       -0.55872090898664        0.03922621395659
N           -0.46850860666899       -1.51831401517364       -0.03942061239550
C           -3.37384193046184       -3.06845298994577       -0.14468624491226
H            4.13752138122552        1.46899278766359        0.75875477086886
H            3.47368485414791        1.98923153895571       -0.80820230913202
H            2.52207321698828        2.22202916670430        0.65908203691175
H            4.05473600039412       -1.27694954529213        0.21768501759921
H           -1.43244203733498        2.83530135474151       -0.06925762855037
H           -2.64512158145644        1.80245775972412       -0.90199272540284
H           -2.54674640475835        1.79099197894121        0.86881371474167
H           -3.19366045283238       -3.69665736912433        0.68755114048330
H           -3.26959573209666       -3.41631794733359       -1.13831627254236
H           -3.53852567293160       -2.03880249955192        0.01815977939669
H            2.08462878941865       -2.85643280147600        0.19971207195871
