25
 energy: 20.163011733057 xtb: 6.6.1 (8d0f1dd)
C            3.20029515013829        1.33317492205342        0.12130394010266
N            2.38572352429047        0.13434120911455       -0.00942676687112
C            2.74639276345869       -1.19728206572571        0.06669528580751
N            1.60483901840883       -1.96653734807091        0.05419528112786
C            0.47477777567510       -1.20990767554951       -0.03291912752746
C            0.97470315047867        0.12612942441299       -0.06396162828222
C            0.18143987108906        1.28357600031118       -0.08532236599736
O            0.51753052146415        2.47382990129256       -0.11612691667375
N           -1.18549396047742        0.93479041269466       -0.06557969867776
C           -2.12535467739529        2.03911431070885       -0.05307850336094
C           -1.72843517718308       -0.29683110975296       -0.06108846314821
O           -2.94888211204675       -0.35617138397768       -0.05336518072298
N           -0.93427224627299       -1.49205499262265       -0.06285962980906
C           -1.93368966012693       -2.64333251770344       -0.08896121754170
H            3.87158672178815        1.29523965205563        0.98643902259064
H            3.82832407639917        1.52902634017595       -0.76143785592890
H            2.52917257541977        2.19098835371176        0.24975117914116
H            3.74692224919214       -1.57357077317114        0.10079316195033
H           -1.52602069400357        2.94657066631897       -0.04081970616135
H           -2.75086759179060        2.00005566334588       -0.94220449411690
H           -2.74990153436531        1.98273770948002        0.83579801302884
H           -1.95200131582941       -3.30881507573616        0.77433896852632
H           -1.97309019783606       -3.23179591494725       -1.00550983195460
H           -2.88326627612020       -2.10509090736393       -0.05504736694527
H            1.66938426747462       -2.96926918704822        0.10331158642523
