25
 energy: 41.153410826069 xtb: 6.6.1 (8d0f1dd)
C            3.43861019713016        1.73672555697220        0.12641844507663
N            2.78777141771655        0.45197411691335        0.05099388208991
C            3.28810393087282       -0.76903644730297        0.14373412453977
N            2.29557963563574       -1.69188713422697        0.10584370343113
C            1.08067271514604       -1.02741100760634       -0.00812480204579
C            1.43592646436468        0.32652344486843       -0.06305031565440
C            0.43945240027015        1.34609500998803       -0.14095297426286
O            0.67361432159119        2.54886912322081       -0.19010941881206
N           -0.81470846701152        0.80504131310958       -0.11781211887010
C           -1.91195145761329        1.74916771680134       -0.05822629717023
C           -1.14784179438705       -0.58225698041573       -0.05337442001453
O           -2.32576829750042       -0.84724682191980       -0.01230189035392
N           -0.13982653609364       -1.50021349476641       -0.02513298065957
C           -4.11644101133597       -3.34450207653239       -0.17211254094013
H            4.28912728607755        1.70592747495991        0.79997176515089
H            3.75514664254720        2.08414226510413       -0.85607485333808
H            2.70548004471220        2.46834197630770        0.47345215266163
H            4.32614123119676       -1.00121720762005        0.23490609063636
H           -1.46188560728980        2.73851518342583       -0.09616685849500
H           -2.58659401178071        1.58781441676272       -0.89675505122453
H           -2.45915880866334        1.60453814004363        0.87264460375444
H           -4.23116012297490       -3.96005025176478        0.69102520412173
H           -4.33042430963677       -3.69861417130531       -1.15479538003211
H           -3.93801340235538       -2.30187862947067       -0.03507533147834
H            2.44869137804391       -2.68837345538105        0.20222590963105
