25
 energy: 6.208128279037 xtb: 6.6.1 (8d0f1dd)
C            3.23348702985363        1.29230712788986        0.11380620054581
N            2.37989088110586        0.12709953940039        0.00570861948226
C            2.71483243289988       -1.21888564961093        0.05518040756792
N            1.55314193243045       -1.95967007710020        0.03953575787733
C            0.46168310684807       -1.16062122354234       -0.01828392449010
C            0.97137839959292        0.15869680431026       -0.03248216238011
C            0.15889902263289        1.30284006152771       -0.05725416194222
O            0.48323650359150        2.49515551532200       -0.07525361318983
N           -1.21970310501923        0.95078999336435       -0.05250257552291
C           -2.15822206723966        2.05831873341980       -0.05169622452282
C           -1.75817593959570       -0.28546377406602       -0.05620267638099
O           -2.97005155974456       -0.41261710208446       -0.06494645209807
N           -0.91619388640297       -1.43641940727085       -0.04647861999773
C           -1.77673900055353       -2.64778395098415       -0.07191246161868
H            3.83082995259948        1.29839057314612        1.03355368842777
H            3.93389117958089        1.38205040793221       -0.72791509244589
H            2.59353309839273        2.18024132990850        0.12912524847778
H            3.69853095282873       -1.63590013438550        0.08273749420031
H           -1.56718475290076        2.97283726276380       -0.03376201156897
H           -2.77288055697437        2.02673059862861       -0.94868619422220
H           -2.79197805115660        2.00787671121314        0.83064942929581
H           -1.70283676841516       -3.28946408153143        0.80697943605604
H           -1.70227118040602       -3.24476293887221       -0.98181757193173
H           -2.78384646674096       -2.22578212015940       -0.06321013691040
H            1.56492037020193       -2.96477424486384        0.07821455430104
