25
 energy: 37.859862727282 xtb: 6.6.1 (8d0f1dd)
C            3.59907415527714        1.84246056682304        0.11179481993516
N            2.90959617371399        0.58005964336996        0.07511271129266
C            3.44019508086779       -0.63231042020518        0.10809864964970
N            2.46026245856656       -1.56039266406247        0.07167035413636
C            1.24059423838773       -0.91074899692403        0.01528395525708
C            1.55066158048131        0.45330023075805        0.00803236895406
C            0.49272945040358        1.42895735450725       -0.03912305400672
O            0.66292232753310        2.64204594261435       -0.05819696204868
N           -0.73750080207940        0.82144856808173       -0.04947724088203
C           -1.90688067089792        1.67709512634121       -0.06271781800139
C           -1.00204411197786       -0.59107738315183       -0.03705805121249
O           -2.15538355539574       -0.95245176094211       -0.04642210382392
N            0.05220066088214       -1.44318596586987       -0.01096889837631
C           -4.65113804625419       -3.57387521335012       -0.18866582235734
H            4.28521109988459        1.87945430432079        0.95801560471342
H            4.14833798318764        2.00042745158189       -0.81557978780587
H            2.84741886604060        2.62753858867262        0.20767089308018
H            4.48787508379195       -0.84838390033473        0.15847296775233
H           -1.56216389596513        2.71024453169419       -0.05348855058011
H           -2.49679381403191        1.47605338968226       -0.95634246555087
H           -2.52103302397469        1.46949183140042        0.81333752083171
H           -4.92096389119773       -4.09544415670427        0.70544150177948
H           -5.03862037557152       -3.87102448339440       -1.14084974681011
H           -4.08292043989560       -2.67531130262188       -0.11362181696924
H            2.58216010993913       -2.56017947362063        0.09220085891942
