25
 energy: -5.924051170598 xtb: 6.6.1 (8d0f1dd)
C            3.24922310852958        1.20607041311462        0.09510852138472
N            2.32983123800561        0.11117935235898        0.02371799975372
C            2.63252031708546       -1.24022902831322        0.03941835617012
N            1.44780543870312       -1.93881769365114        0.01256692453376
C            0.41680593405609       -1.07464725751214       -0.00994564617398
C            0.93639669278990        0.21976342387003        0.00138210449073
C            0.12538394401299        1.37083779441403       -0.01394118056031
O            0.47726067412988        2.55506512719721       -0.01345968660319
N           -1.26351392801230        1.02254143942036       -0.03420573821672
C           -2.21369953804570        2.12028838575242       -0.04957331648507
C           -1.80646414375516       -0.22060264117248       -0.04888725980266
O           -3.00738918835655       -0.41048966353059       -0.07063429136796
N           -0.92840658753121       -1.32580987362054       -0.03721329997340
C           -1.54905450928514       -2.63410077960734       -0.06200497792337
H            3.75108134833427        1.24305608021449        1.06782206542177
H            4.01147271287249        1.12786620948195       -0.68526950499511
H            2.68383404596612        2.12943747273994       -0.03813479461121
H            3.60589549604558       -1.67061375569708        0.04608068403819
H           -1.64236559105140        3.04681868704883       -0.02649186012578
H           -2.82071105815942        2.06816048919612       -0.95295595042438
H           -2.86626012723233        2.05148302361963        0.81992830068112
H           -1.30404451045843       -3.21718858084747        0.82760138831697
H           -1.28368068373116       -3.19229515553744       -0.96190048800797
H           -2.62366676044756       -2.45695082636054       -0.07257280924204
H            1.39047332432156       -2.94230640166323        0.01592417673968
