25
 energy: 38.937677607544 xtb: 6.6.1 (8d0f1dd)
C            3.52218583816990        1.78562883244001        0.11781102622500
N            2.84884114931708        0.51391055441852        0.06321891832980
C            3.36300936104559       -0.70336699174186        0.12326789961712
N            2.37583691105731       -1.62764045945274        0.08647163992083
C            1.15968362199708       -0.96755064830718        0.00168572257896
C            1.49336485437911        0.39118675965563       -0.02868956233603
C            0.46542612436239        1.38921253724160       -0.09113660714928
O            0.66845356853503        2.59773518488671       -0.12447374930461
N           -0.77814653283176        0.81592159477793       -0.08707794773001
C           -1.91105323153130        1.71616618087693       -0.06399869758635
C           -1.07853901055503       -0.58429629593991       -0.04526253540043
O           -2.24443565068987       -0.90197070371645       -0.02739214040240
N           -0.04575283043266       -1.46679152241440       -0.01790506558402
C           -4.37490529835399       -3.47799229867092       -0.18275957315668
H            4.29410760500474        1.78164299246669        0.88453867477148
H            3.95684324636661        2.03736106039791       -0.84843250720396
H            2.77408677869321        2.54963825883749        0.33968387672304
H            4.40595406149293       -0.92655970956067        0.19430711280079
H           -1.51134053423990        2.72765241512277       -0.07707918771588
H           -2.54344302776377        1.53625209280612       -0.93207569148359
H           -2.49307740622733        1.54001524076282        0.84041799592381
H           -4.56620949440944       -4.05684256267404        0.69553564624866
H           -4.66836254069377       -3.81106467990924       -1.15544722571788
H           -4.04447254398878       -2.47056847619994       -0.06705204668296
H            2.51136364522547       -2.62688346033620        0.14934551556704
