25
 energy: 37.764164950512 xtb: 6.6.1 (8d0f1dd)
C            3.63273246546401        1.88021756052749        0.11263487412214
N            2.94314322288466        0.61698290764041        0.07986291261774
C            3.48959187975680       -0.58888911303930        0.10410823057403
N            2.52198126745665       -1.52886802971165        0.06683485957801
C            1.29318063882144       -0.89608022239236        0.01886445366439
C            1.58450582763098        0.47420033013141        0.02295788141381
C            0.51172149744912        1.43673513762008       -0.01590104045806
O            0.66083566071381        2.65245737611076       -0.02226730040368
N           -0.70801983027130        0.80698618348601       -0.03970603294221
C           -1.89584211013295        1.63879371763531       -0.06137214352854
C           -0.95164693587193       -0.61054273446513       -0.04309612904050
O           -2.10027381430880       -0.98561143955446       -0.07022082259080
N            0.11373788229791       -1.45118512036310       -0.01688779369065
C           -4.80984408822617       -3.59778883991465       -0.19051720979683
H            4.27225518982894        1.93875554132466        0.99465238297840
H            4.23998439922655        1.99954815121597       -0.78516623119830
H            2.88198459930063        2.67168930105178        0.14526425988714
H            4.54074604289522       -0.79183558845998        0.14689569001063
H           -1.57548141264198        2.67911331067877       -0.04443789371622
H           -2.47393518046381        1.42990484187278       -0.96139789044765
H           -2.51600661968024        1.41451190016140        0.80659986232296
H           -5.10348308615865       -4.08883725487046        0.71329238471197
H           -5.25959296434551       -3.86686179068012       -1.12438828135830
H           -4.13323613774473       -2.77608801064782       -0.14109568679424
H            2.65676449321351       -2.52709875166174        0.07291686864989
