25
 energy: 48.622205431979 xtb: 6.6.1 (8d0f1dd)
C            3.27352821149019        1.62789359334397        0.15686446441340
N            2.65379929219653        0.32795681654779        0.02495714420032
C            3.12019466960068       -0.90741662911119        0.15801462921597
N            2.09813748981821       -1.80693242931184        0.11702332654228
C            0.90146237919510       -1.11857293327858       -0.02971013802188
C            1.30516557934507        0.22013886327406       -0.11624516895393
C            0.37444295216984        1.29334994522787       -0.22286090521519
O            0.68005711004464        2.47479917127084       -0.33287317109138
N           -0.90239659611665        0.84073706382313       -0.13343532052416
C           -1.94079030038038        1.85082494015795       -0.05060962749691
C           -1.29269330877784       -0.52358327785762       -0.04973346807610
O           -2.48922674294823       -0.66456037237876        0.03032504879030
N           -0.35451995041471       -1.52295701420002       -0.03642424812379
C           -3.63654502651364       -3.11570788431309       -0.15060690424542
H            4.21912039656003        1.55634884854609        0.68079300079106
H            3.39099279958152        2.10703537224669       -0.81488397849200
H            2.59488919721455        2.28434193160030        0.70778634022564
H            4.14985442533744       -1.17874025193101        0.23489657775485
H           -1.42433677572642        2.80944319584013       -0.08633521060932
H           -2.63272374026225        1.73857564740489       -0.88077499512378
H           -2.48616746579684        1.74167705555247        0.88673746846810
H           -3.55593651679278       -3.77073598303838        0.67564091860540
H           -3.64576192921054       -3.47744256859987       -1.14441715353147
H           -3.69458671910451       -2.07084890533390        0.01880839293402
H            2.21829394554630       -2.80650485036929        0.21839908581862
