25
 energy: 52.864885832607 xtb: 6.6.1 (8d0f1dd)
C            3.21461808432423        1.41495930720072        0.13680147074008
N            2.46701834789196        0.17793672646365        0.00229423467745
C            2.84843197478877       -1.09900953086989        0.08422157390655
N            1.75099449804229       -1.91216240003562        0.05960523720033
C            0.59957283357329       -1.14418219838208       -0.04918245229354
C            1.09881934507503        0.17069629111302       -0.10226380836416
C            0.24325630485632        1.31732986826423       -0.11477885394977
O            0.59090149089099        2.49406967503714       -0.14352524470615
N           -1.06458024304933        0.93752958086166       -0.08102568628957
C           -2.06210122425568        1.99201605592625       -0.05142860229717
C           -1.55416726124293       -0.37715893625754       -0.05461903413360
O           -2.77105984579553       -0.38708025351121       -0.00722606561773
N           -0.69750632931358       -1.46092472419226       -0.05999800571184
C           -2.69786618627491       -2.99573657856492       -0.12128428881819
H            3.95169529053004        1.36077218596777        0.93664941258241
H            3.73662607929861        1.68507513343385       -0.78422818088587
H            2.49393568537202        2.21069841489424        0.36683421595621
H            3.85828815736271       -1.45559564019342        0.14217399291467
H           -1.50312513037071        2.92302724060787       -0.04604255579495
H           -2.70368093629609        1.92124854162299       -0.92765472743173
H           -2.67437207162814        1.90281361093258        0.84462846729881
H           -2.47748361773305       -3.53230880853899        0.76462655940237
H           -2.50904655127417       -3.38036585913169       -1.08912784261277
H           -3.15546268704648       -2.04928466298941       -0.03622696159474
H            1.80844061397650       -2.91620911384468        0.13561977466305
