25
 energy: 0.829761694489 xtb: 6.6.1 (8d0f1dd)
C            3.24390146556180        1.26422783553628        0.10779769100055
N            2.37195893032455        0.11863690230637        0.01256198066045
C            2.70132421021201       -1.23108123065279        0.04648524361327
N            1.53031507148053       -1.95693482966737        0.02896618363417
C            0.45741340958136       -1.13677335982382       -0.01397678578066
C            0.96856702850653        0.17469771645956       -0.01822661027561
C            0.15075334103154        1.31916445415023       -0.04054440094407
O            0.47462139542641        2.51193602438440       -0.05346542419263
N           -1.23197881054258        0.96417255707756       -0.04470881352949
C           -2.17922493101143        2.06380983769996       -0.05029044536237
C           -1.76621126836548       -0.27613619107594       -0.05334941777739
O           -2.97335010571362       -0.43962921490293       -0.06863969749428
N           -0.90548444987310       -1.40635420323191       -0.04091920528196
C           -1.69303181753477       -2.64687586116203       -0.06704219004932
H            3.80664035224197        1.28147930066182        1.04821712373864
H            3.96930146128814        1.29900321931621       -0.71400432344589
H            2.62694939918745        2.16735486020666        0.07153971722775
H            3.68048810288536       -1.65861702414644        0.07184578580804
H           -1.60152555848712        2.98731561477668       -0.03176882798023
H           -2.79081788155896        2.01132709345771       -0.94903720898815
H           -2.81707906183577        1.99562678139211        0.82851770705790
H           -1.56906101127745       -3.27081534524317        0.81798499146123
H           -1.56080514085384       -3.23483255606044       -0.97559280250190
H           -2.72764914385018       -2.29857394741077       -0.06640482193735
H            1.51382261667781       -2.96224081701336        0.05547994316395
