25
 energy: 39.969340044262 xtb: 6.6.1 (8d0f1dd)
C            3.48082949861139        1.76133888682443        0.12223573724831
N            2.81875841281703        0.48320828295330        0.05733376658491
C            3.32724178895842       -0.73500202497471        0.13447579708488
N            2.33978790864533       -1.66089714580746        0.09788097684591
C            1.12243282974175       -1.00014425765297       -0.00280709786658
C            1.46543694895502        0.35708665699333       -0.04656519107439
C            0.45282946397244        1.36574993140117       -0.11683160133260
O            0.67122679152690        2.57172858674555       -0.15672625698581
N           -0.79562361193120        0.80800734354757       -0.10557034264080
C           -1.91119735348077        1.72921245012121       -0.06113766705699
C           -1.11210878937962       -0.58610888380501       -0.05013709034414
O           -2.28424556392856       -0.87804761068794       -0.02003225768362
N           -0.09097390448523       -1.48556511947891       -0.02109339180152
C           -4.24350290927622       -3.41438940143460       -0.17794585175819
H            4.29324910421190        1.74226964948443        0.84379825853131
H            3.85726191765099        2.06083407695788       -0.85467231586063
H            2.73854509358888        2.51043100983694        0.40655666296102
H            4.36786091016257       -0.96090319065674        0.21689278123866
H           -1.48627401982286        2.72939618405366       -0.08915784671240
H           -2.56871296875092        1.55735063875123       -0.91162886519826
H           -2.47023779167809        1.56738664627205        0.85985091867190
H           -4.39590175714815       -4.01222236141125        0.69462147177173
H           -4.49650962609419       -3.75829028238081       -1.15752970854772
H           -3.99498728550027       -2.38429068143684       -0.05065870214134
H            2.49675967957469       -2.65720542737573        0.18433553249114
