25
 energy: 44.670419310935 xtb: 6.6.1 (8d0f1dd)
C            3.35412149141710        1.69131650981098        0.13498444595334
N            2.72526874688199        0.39331435574330        0.03320929234980
C            3.20887276887272       -0.83489087585624        0.15328065722318
N            2.20368950276002       -1.74937663650150        0.11653722163751
C            0.99591192930334       -1.07511723315877       -0.01841267433128
C            1.37503662348524        0.27124372057855       -0.09372848133927
C            0.41098324843994        1.31522367111414       -0.18684832644132
O            0.68099489485830        2.50912599947798       -0.26068322501197
N           -0.85584043001803        0.81648304770920       -0.13183114614727
C           -1.91675966219526        1.80123341666744       -0.05196034508232
C           -1.21850480441705       -0.56193707151795       -0.05463106682880
O           -2.40668218781309       -0.76714899078877        0.00672524022855
N           -0.24131931517396       -1.51747692054075       -0.03087211390330
C           -3.87750522611937       -3.20464341878933       -0.15870281248133
H            4.27270256980213        1.64227847537658        0.70728439869572
H            3.54893022260200        2.13297293998162       -0.84263811992527
H            2.64897732814388        2.37919482399618        0.60722763410624
H            4.24211973035190       -1.08686768428284        0.24015232675937
H           -1.41950307372669        2.76960066110871       -0.09635341805111
H           -2.60961744389533        1.66655542147356       -0.87931978749088
H           -2.45236262125660        1.68143758709560        0.88940373081751
H           -3.89885048550758       -3.85100716229889        0.68298574754286
H           -3.99554789891378       -3.57089050152659       -1.14786552958187
H           -3.83117816115419       -2.15258127423175       -0.00196098501565
H            2.34020313040282       -2.74749424570107        0.22056243519955
