25
 energy: 0.000000000000 xtb: 6.6.1 (8d0f1dd)
C            3.23720163006194        1.16630919979326        0.08434469647475
N            2.29877817382611        0.07527477071623        0.03981603040599
C            2.58028210190900       -1.21425402444508        0.03006176031096
N            1.43813958087363       -1.93419271955128        0.00098261760884
C            0.39035688448383       -1.05887472636071       -0.00790371836672
C            0.93510056364412        0.21347819449412        0.01709077491437
C            0.09450143893243        1.40504303904423       -0.00410947031874
O            0.49712751527797        2.54126714362870       -0.00342325688240
N           -1.25076640035757        1.06271879480407       -0.03085478223738
C           -2.21907211982101        2.15522099834493       -0.05001256985998
C           -1.81739487048744       -0.20012725993278       -0.04692818574614
O           -2.99983886758376       -0.37846417018721       -0.07008878229737
N           -0.92618586207120       -1.30210215599479       -0.03682761578324
C           -1.46982264913417       -2.64643102187190       -0.06029820460571
H            3.71247264356769        1.21471455160235        1.06488849150277
H            4.00791497605742        1.03430808813993       -0.67357694370751
H            2.69910007168542        2.09770118228144       -0.09130154882931
H            3.56654120610678       -1.63682992603973        0.04233140067262
H           -1.67107961066214        3.09322851271934       -0.02552706933167
H           -2.82428953597071        2.09428624779827       -0.95318082946668
H           -2.87644029173232        2.07745725625962        0.81450067533302
H           -1.17061996399332       -3.19584890659852        0.83242232437030
H           -1.14560257411436       -3.17511610292205       -0.95688275822323
H           -2.55549792440841       -2.55659984320617       -0.07459039797972
H            1.38130855184625       -2.94313852034425       -0.01389874181052
25
 energy: -3.178929420306 xtb: 6.6.1 (8d0f1dd)
C            3.22729896832587        1.17916537327005        0.07385534981343
N            2.29877155752011        0.09148947894574        0.03254741308755
C            2.59685625191783       -1.23412532530283        0.03169200444399
N            1.42902191447169       -1.94815946530222        0.00658910289124
C            0.39294967802679       -1.06879172919568       -0.00715837861740
C            0.92168817649786        0.21157822518531        0.01202002955851
C            0.09504409115752        1.38439933544987       -0.00603611999590
O            0.49078692946764        2.54976192518489       -0.00914943004814
N           -1.26544231892208        1.04819023511822       -0.03268297261495
C           -2.18562270842437        2.18878845258868       -0.03299459126351
C           -1.82844122608986       -0.21186152380625       -0.05715629222786
O           -3.02402861330375       -0.40221556269438       -0.07929035906612
N           -0.93695951646253       -1.31622166222368       -0.03726045198066
C           -1.46146083695969       -2.66659967925457       -0.05229167821720
H            3.70262133231262        1.23554587880761        1.05643363015567
H            3.99695503449105        1.04235884537041       -0.68685812227775
H            2.67524147248189        2.09915350889113       -0.11032363797853
H            3.57750938323756       -1.65317149933350        0.04570218151141
H           -1.65721807553993        3.16980562999564        0.05397675721939
H           -2.73889562283109        2.20982530251574       -0.94545169291606
H           -2.93772890256318        2.04001658424049        0.74332036735959
H           -1.15629911479163       -3.21079562029883        0.84427482287860
H           -1.12240366429752       -3.20331036636986       -0.94124365881558
H           -2.54766914543642       -2.59337709459635       -0.07248334576863
H            1.36963962364986       -2.95242064501362       -0.00299703098380
25
 energy: 2.202315555087 xtb: 6.6.1 (8d0f1dd)
C            3.20776718183574        1.19093326638304        0.05387712098366
N            2.29211618789497        0.10327376576007        0.01885282493332
C            2.60887775696713       -1.25524018345050        0.03491068128113
N            1.41600196094990       -1.96118310014335        0.01576888286621
C            0.39311474924701       -1.08366335409553       -0.00438953103264
C            0.90213977747825        0.20471930813850        0.00325106887524
C            0.09464079213955        1.35178843435653       -0.01249736192473
O            0.47356407840608        2.53940652666373       -0.02446349217545
N           -1.28850626505493        1.03460444124657       -0.03095646725850
C           -2.14546065540711        2.23535772309724       -0.00521976334585
C           -1.84114716088717       -0.22426284447108       -0.06267605774013
O           -3.04275116851936       -0.43597334854575       -0.09153834772639
N           -0.95100719516712       -1.33217664591338       -0.03519656374536
C           -1.44612993953854       -2.69421939646309       -0.03880814210507
H            3.68371376415714        1.26762591321451        1.03733322388204
H            3.97922364889446        1.05473292803691       -0.70727726257426
H            2.63937077654530        2.09860143764998       -0.14239763354718
H            3.58474933416036       -1.66617246995741        0.05104228726525
H           -1.62971587400950        3.25746414701119        0.21341579410786
H           -2.58667422980152        2.41737126544184       -0.96893698535993
H           -3.04079493076829        1.97454987847365        0.62756890394781
H           -1.13343863434858       -3.22900449915516        0.86442240129635
H           -1.08451969251297       -3.24351934030896       -0.91519449245052
H           -2.53366901988559       -2.65310066953533       -0.06882479624433
H            1.36074942516107       -2.96288458126223        0.01496760393876
25
 energy: 11.000139097065 xtb: 6.6.1 (8d0f1dd)
C            3.18481598414088        1.19816695344139        0.03446691298662
N            2.28195220768376        0.10332789289639        0.00665428897740
C            2.61039335147048       -1.27039209438607        0.03782079703084
N            1.40779247379531       -1.97232022486266        0.02365021099527
C            0.38975815552875       -1.10026947326446       -0.00152858403089
C            0.88625081574703        0.19341043948629       -0.00521812274633
C            0.08819911036319        1.32921253208302       -0.02299797260079
O            0.45399206851772        2.52508169677200       -0.04357708208047
N           -1.31256302141800        1.02952543843970       -0.02338133456159
C           -2.12170760808274        2.27169856464849        0.02352988347322
C           -1.85390377231289       -0.23454805406258       -0.05961689360066
O           -3.05415396567557       -0.46883775526726       -0.09889426977792
N           -0.96140476636730       -1.34566720614532       -0.03216839814509
C           -1.42965100285357       -2.71960790267842       -0.02783893654432
H            3.65920193311237        1.29706451107967        1.01809675083314
H            3.95997766958644        1.06690582457096       -0.72442705420036
H            2.60350399327623        2.09660586652286       -0.17305552456793
H            3.58705588098722       -1.67302374984420        0.05567306917055
H           -1.61310743535057        3.31212833261112        0.36623108679955
H           -2.42097164325512        2.61941333605399       -0.98246060219085
H           -3.12037860309703        1.93833022114779        0.50408584754037
H           -1.11157330823290       -3.24330442667169        0.88230329670594
H           -1.04486544584124       -3.27621467345196       -0.89256292961907
H           -2.51802036477946       -2.71298185026671       -0.06933395469752
H            1.36162196099331       -2.97467559668033        0.03158341099812
25
 energy: 15.943943960776 xtb: 6.6.1 (8d0f1dd)
C            3.16289574520183        1.20039061228834        0.02283520798870
N            2.27129094285380        0.09429494510395       -0.00031567612268
C            2.60358253325294       -1.27829054573030        0.04027047815658
N            1.40406316221555       -1.97998739683032        0.02825047215727
C            0.38372494416905       -1.11443215946940        0.00010074880434
C            0.87624838806950        0.18086550623402       -0.01167289551809
C            0.07948265856314        1.31854560060265       -0.03606231469959
O            0.43742075131703        2.51010264946629       -0.06420081735111
N           -1.33142581606001        1.03372968589556       -0.01160996730627
C           -2.11158427168602        2.29719736230200        0.04359421418566
C           -1.86461850725004       -0.23964477382142       -0.04896773450797
O           -3.05795686760773       -0.49307312006950       -0.10098839523546
N           -0.96788833630062       -1.35408015835716       -0.03023078989234
C           -1.41565880945277       -2.73829837028213       -0.02498684272780
H            3.63260162566579        1.31774156187881        1.00671503635263
H            3.94300973012751        1.07671289562183       -0.73171950389779
H            2.57244564921049        2.09242617026268       -0.19319139629893
H            3.58443703217613       -1.67429873856892        0.05964097614320
H           -1.61999833574847        3.34368753972979        0.45149290471590
H           -2.28947299819147        2.73826292731396       -0.94321237500272
H           -3.13969775776800        1.95336136771497        0.39803829494991
H           -1.09619030430849       -3.25340422585475        0.89036170771544
H           -1.00958779124011       -3.29520956099863       -0.88089740582712
H           -2.50348441024225       -2.76278671394553       -0.07875547943978
H            1.36857571096953       -2.98478445831475        0.04254544880529
25
 energy: 16.780541672400 xtb: 6.6.1 (8d0f1dd)
C            3.14890426598247        1.19801239574271        0.01356774448833
N            2.26403998549211        0.08113850738678       -0.00521711277459
C            2.59126593600177       -1.27435319461433        0.03773119361886
N            1.40660980972156       -1.98151051644446        0.02983370802118
C            0.37641240275252       -1.12191635068757        0.00173095545226
C            0.87416689251302        0.17180723681971       -0.01300219292454
C            0.06955556246522        1.32070637915684       -0.03850510027063
O            0.42440321983396        2.50121848763837       -0.08152622185094
N           -1.34054581289392        1.04096703437938        0.00883283733000
C           -2.12220065395842        2.29947510654927        0.05470755489531
C           -1.87295336158021       -0.24094861056013       -0.03691918659119
O           -3.05710466827510       -0.50509148317492       -0.09462501259177
N           -0.96909817359057       -1.35642193432000       -0.02659077871790
C           -1.40997387672093       -2.74485650673836       -0.02262258490300
H            3.61318471094695        1.32353656755037        0.99696559460649
H            3.93166829105126        1.07860131565550       -0.73745486215251
H            2.55550902214328        2.08687536880982       -0.20658169458325
H            3.57773500152711       -1.66687129883778        0.05531044226465
H           -1.65509628469577        3.33729793803122        0.52468974554522
H           -2.14854896337200        2.79106623323600       -0.89777189807414
H           -3.14827912566932        1.97264629948877        0.28073291479495
H           -1.09296262291490       -3.25386545137609        0.89605053769695
H           -0.99157961378857       -3.29443948555415       -0.87478078638656
H           -2.49416113511115       -2.78530105587362       -0.08486235637733
H            1.38126386007594       -2.98874438009136        0.04734045563141
25
 energy: 19.017267686616 xtb: 6.6.1 (8d0f1dd)
C            3.14417424577084        1.19635219569696        0.00020261527174
N            2.26100021204676        0.07573269813776       -0.01370748702598
C            2.58306411057199       -1.26426218664164        0.02867276912378
N            1.41053984064681       -1.97938654555934        0.02826504232711
C            0.37132763932808       -1.12303904049911        0.00653013385140
C            0.87389798417110        0.16964910124875       -0.00931219380898
C            0.06149806753642        1.32238128946770       -0.02338201430914
O            0.41359202696294        2.50015841543022       -0.09120196495635
N           -1.34173239911468        1.03773809972526        0.04744691385287
C           -2.13310311536873        2.28849187098332        0.06360371312510
C           -1.87957239297079       -0.24448504566219       -0.01568097064013
O           -3.05959681560661       -0.51077784278658       -0.07700154952003
N           -0.96864864315917       -1.35774653494842       -0.01600199133548
C           -1.41167181118690       -2.74513729953132       -0.01540376305336
H            3.60679664193248        1.32107476782028        0.98272504897149
H            3.92565126980005        1.07432887329054       -0.75074349150360
H            2.55084586593463        2.08352730538683       -0.22112529737641
H            3.57206949449851       -1.65578783529975        0.03974714097662
H           -1.70413124815329        3.31368354009491        0.62909655884890
H           -1.95854946353484        2.84526888690355       -0.89119892227451
H           -3.21784038320762        1.95339559554467        0.12439940422432
H           -1.09594741622907       -3.25182683797847        0.90389097095355
H           -0.98979689966573       -3.28663783981504       -0.86824829920243
H           -2.49301980678942       -2.78678408026795       -0.07982769340593
H            1.39136766372257       -2.98688294856896        0.04528922303273
25
 energy: 16.095459711447 xtb: 6.6.1 (8d0f1dd)
C            3.14760494604613        1.19529634666328        0.00145877609809
N            2.26084722075022        0.07623351844663       -0.01447997203301
C            2.57843723307847       -1.25247113428208        0.02538173189282
N            1.41281111267981       -1.97409065279701        0.02582164702906
C            0.36864074825534       -1.11695157079310        0.00889756805654
C            0.87552594553797        0.17394567543269       -0.00567233076767
C            0.05807925237768        1.32536310170647       -0.01495264184979
O            0.41244942030405        2.50231576933101       -0.09236829633344
N           -1.33412868339751        1.03209893873189        0.06586213727182
C           -2.13727106127660        2.27756247209893        0.05042684331351
C           -1.88074294542997       -0.24495309294677       -0.00349405226114
O           -3.06087384569106       -0.50227836684363       -0.06717871738621
N           -0.96713597127215       -1.35584707409811       -0.01108321150217
C           -1.41744021549684       -2.74041870190293       -0.01760679311100
H            3.60967660266728        1.31352851510155        0.98467691460634
H            3.92860084143512        1.06973567532147       -0.74912272220144
H            2.55728132027121        2.08399462846294       -0.21842498838299
H            3.56700894231071       -1.64784042281521        0.03284571495036
H           -1.74590477743521        3.28622972582386        0.62006076494873
H           -1.92398422559316        2.80618365915228       -0.85229824148691
H           -3.18815664182622        1.96413037454787        0.07610297311316
H           -1.10350643740007       -3.25089531246479        0.89928025448365
H           -0.99803600555118       -3.27773372454797       -0.87362984380158
H           -2.49934430177671       -2.77319160969106       -0.08169624193759
H            1.39177619436902       -2.98091813546624        0.03822662343810
25
 energy: 15.512084664583 xtb: 6.6.1 (8d0f1dd)
C            3.14899609116535        1.19778958225528       -0.00090464810363
N            2.26011868300601        0.08134063229203       -0.01797873475146
C            2.58012483985703       -1.25000849521571        0.02218819618278
N            1.41231588172579       -1.97331077969957        0.02450804494433
C            0.36894372876161       -1.11477757029773        0.01146835096262
C            0.87312082039157        0.17709943360124       -0.00366090459863
C            0.05320094493497        1.32295962269856       -0.00826132180022
O            0.40710948577230        2.50352295197227       -0.08959328727335
N           -1.33591006454242        1.02497278466400        0.08419744632152
C           -2.13823991059581        2.27549434481211        0.04460678751569
C           -1.88247698393771       -0.24831687733868        0.00518687357386
O           -3.06480552149509       -0.50334113622805       -0.05794255578594
N           -0.96773711982752       -1.35764037831846       -0.00572664390815
C           -1.41935479987688       -2.74135874064353       -0.01557101409854
H            3.61339248730611        1.31327037128788        0.98241197955723
H            3.92935118970822        1.06974600561221       -0.75224016015660
H            2.55979499950487        2.08751959721616       -0.21969268896360
H            3.56727191837514       -1.64760523663960        0.02548376041104
H           -1.78350359297400        3.27471819209571        0.63998032523700
H           -1.86116679868326        2.81835717438403       -0.84394907429718
H           -3.18500011599627        1.96055343976434        0.02185962588484
H           -1.10559330438501       -3.25610334431950        0.89922980445495
H           -1.00360607201975       -3.27881336058630       -0.87403551412546
H           -2.50271450686163       -2.76766782597019       -0.07820423057368
H            1.38858238862274       -2.97937178522655        0.03367347953781
25
 energy: 14.935148783201 xtb: 6.6.1 (8d0f1dd)
C            3.15297269956955        1.20043690427164       -0.00305331914133
N            2.26067363440639        0.08867115212464       -0.02209516600940
C            2.58570085815474       -1.25216809617857        0.01846552121792
N            1.41044823548049       -1.97368643558449        0.02245760754251
C            0.37208835151506       -1.11169466452138        0.01315353955629
C            0.87144247530607        0.18117311998762       -0.00145518083887
C            0.05106775968214        1.32112660284038        0.00076410800545
O            0.40756356483144        2.50518164374080       -0.07465496443224
N           -1.33696148097122        1.02065521259381        0.10480306560632
C           -2.13578831215081        2.27970619796742        0.03517287093205
C           -1.88010219315173       -0.24883679377948        0.01050664233771
O           -3.06638782181853       -0.50008931163171       -0.04942701867500
N           -0.96779234657742       -1.35814301465291       -0.00072973630033
C           -1.42127594726633       -2.74047257744968       -0.01255081117509
H            3.62211645063714        1.31262532873884        0.97983402462433
H            3.93162471670668        1.07088795949697       -0.75672804569032
H            2.56539243162075        2.09251102573727       -0.21872976957774
H            3.56990730187425       -1.65328847714295        0.01605492019489
H           -1.83586722506852        3.26661833307347        0.65318034449488
H           -1.80600322856653        2.81499086468028       -0.82932528216032
H           -3.19112522131360        1.95153068587184       -0.04024732212828
H           -1.10626734402158       -3.26171552468386        0.89886330425345
H           -1.01429483889220       -3.28076453684824       -0.87493903532039
H           -2.50714890163243       -2.75729159083958       -0.06996706746960
H            1.38023104958258       -2.97893540564019        0.02768066630035
25
 energy: 13.768109035918 xtb: 6.6.1 (8d0f1dd)
C            3.15395304034020        1.20100992928857       -0.00264813298882
N            2.26042178438006        0.09060147845147       -0.02198914947932
C            2.58745193721824       -1.25349122045252        0.01836586328654
N            1.41002393953169       -1.97361775287349        0.02202609813106
C            0.37314336113307       -1.11141260925034        0.01244365296538
C            0.87090702273362        0.18156414912106       -0.00120234147111
C            0.04914853059894        1.32145212385004        0.00256573011087
O            0.40680704117577        2.50578057391156       -0.06593164052809
N           -1.33982985525079        1.02016229600698        0.10386469858183
C           -2.13991639111062        2.27875670170346        0.03113720283799
C           -1.87936833243061       -0.24999325762665        0.00767271042130
O           -3.06649129773349       -0.50087279401691       -0.05214973145567
N           -0.96767665800155       -1.35852150151161       -0.00098362213708
C           -1.42146420559266       -2.74007288054877       -0.01142510185637
H            3.62474791181039        1.31215395127817        0.97965183922688
H            3.93161973325228        1.07191834825553       -0.75758947779591
H            2.56740519416553        2.09420928559801       -0.21665939182187
H            3.57118139915725       -1.65458018611863        0.01464082986252
H           -1.84556253387816        3.25584687715606        0.64882637533768
H           -1.80439819164438        2.81984556935288       -0.83501754748582
H           -3.17781216304963        1.95464385647980       -0.03448951116140
H           -1.10455290048983       -3.26148893191233        0.89929849613643
H           -1.01804876169563       -3.28116340009246       -0.87516505017665
H           -2.50767309404154       -2.75482589224648       -0.06538378467413
H            1.37819815735816       -2.97887611163142        0.02717488228100
25
 energy: 13.669421369034 xtb: 6.6.1 (8d0f1dd)
C            3.15365062261140        1.19995695303046       -0.00311888367442
N            2.26030157726244        0.08902501762394       -0.02161261740508
C            2.58657325459495       -1.25369063849465        0.01833144866932
N            1.41023154363401       -1.97346483563531        0.02173410931206
C            0.37279416982554       -1.11191164583285        0.01234057682885
C            0.87166634999866        0.18054139447342       -0.00086842321971
C            0.05018807891997        1.32248483555046        0.00364703525472
O            0.40810526697709        2.50554451528543       -0.06463439533998
N           -1.33925162698938        1.02225438250966        0.10232771273923
C           -2.13964424668672        2.27927625419359        0.03107535217871
C           -1.87882737276258       -0.24917440380779        0.00784363627280
O           -3.06519242967549       -0.50026959058762       -0.05413442075335
N           -0.96754562382295       -1.35778609322889       -0.00098221530070
C           -1.42131777198160       -2.73932889447688       -0.01108638903755
H            3.62434846620312        1.31143914087220        0.97879561299641
H            3.93087246516969        1.07149307747182       -0.75843926324232
H            2.56711387690652        2.09318271109702       -0.21682663081014
H            3.57086748672544       -1.65381543203420        0.01432072096293
H           -1.84351730105710        3.25482706773197        0.65179500079314
H           -1.80650312156592        2.81890983282462       -0.83528283972870
H           -3.18387975117026        1.95392692938118       -0.03631814388906
H           -1.10349522981058       -3.25959601399140        0.89974287554000
H           -1.01752172902787       -3.27974634481446       -0.87475903412376
H           -2.50712002115922       -2.75606201974122       -0.06447013828089
H            1.37931773481717       -2.97898759722853        0.02761320940475
25
 energy: 13.357595930317 xtb: 6.6.1 (8d0f1dd)
C            3.15340272500574        1.19937041113476       -0.00331251545717
N            2.25995120517674        0.08841639486566       -0.02104345373013
C            2.58622098015899       -1.25419353353797        0.01878425983665
N            1.41010060900275       -1.97336941288186        0.02149369886785
C            0.37255761563453       -1.11229099845886        0.01223793132368
C            0.87190017687982        0.17984904671905       -0.00071914429246
C            0.05093031772451        1.32294744550431        0.00409822926416
O            0.40913991272097        2.50534390018288       -0.06266360439539
N           -1.33933250301276        1.02358096298990        0.09940279716650
C           -2.13882136230077        2.28022846252526        0.02991511716744
C           -1.87840204839916       -0.24892418933787        0.00689040933616
O           -3.06451166156721       -0.49986138085329       -0.05640259361658
N           -0.96776664978999       -1.35724459599583       -0.00094347875744
C           -1.42111140055524       -2.73892001801012       -0.01051820939809
H            3.62444396067549        1.31107308572039        0.97822923912403
H            3.93005575930210        1.07125351572515       -0.75920839729075
H            2.56687114723786        2.09278749284748       -0.21661373244281
H            3.57096494609962       -1.65315018738776        0.01407986769435
H           -1.84327359385573        3.25080469370054        0.65404991704873
H           -1.80973566889918        2.82112778862670       -0.83565089386484
H           -3.18500813950957        1.95397196763821       -0.03594235357173
H           -1.10203807605088       -3.25839612715031        0.90021880820417
H           -1.01736438847970       -3.27901847922617       -0.87441507153804
H           -2.50678011720296       -2.75726979539317       -0.06313790328742
H            1.37982092194035       -2.97908784777513        0.02820497275639
25
 energy: 12.895434697532 xtb: 6.6.1 (8d0f1dd)
C            3.15329572272862        1.19902192712049       -0.00355591377798
N            2.25968582802331        0.08817025362580       -0.02051093871704
C            2.58594670400220       -1.25453170020417        0.01955297091044
N            1.40989064641973       -1.97327805505290        0.02132076412549
C            0.37230848172903       -1.11244949036949        0.01218085307915
C            0.87198348216783        0.17955070389785       -0.00081538009902
C            0.05153032380935        1.32318511571985        0.00387181560056
O            0.40978555343434        2.50533785100223       -0.06158182192060
N           -1.33945507274609        1.02438100479730        0.09637022091775
C           -2.13813245678293        2.28070027983779        0.02878701533813
C           -1.87821769707763       -0.24889982533565        0.00577663644389
O           -3.06430619233589       -0.49945169368081       -0.05776424208193
N           -0.96811774265676       -1.35671398084048       -0.00080992917397
C           -1.42098802785130       -2.73862292538876       -0.00994188135223
H            3.62470886285303        1.31096608190917        0.97771793432618
H            3.92949552433268        1.07087960314352       -0.75988197263819
H            2.56674048548398        2.09256029261585       -0.21666575845516
H            3.57108056758843       -1.65245186913811        0.01377663617894
H           -1.84551448747737        3.24466059123343        0.65819328766671
H           -1.80985698058442        2.82491267851512       -0.83586066856570
H           -3.18497732263623        1.95447335428486       -0.03666925494721
H           -1.10102323071132       -3.25762148405170        0.90068836748541
H           -1.01727410309774       -3.27857368728419       -0.87401635546967
H           -2.50656210469143       -2.75807150123422       -0.06214683089266
H            1.38018790401290       -2.97910492295081        0.02901834216595
25
 energy: 12.639635808116 xtb: 6.6.1 (8d0f1dd)
C            3.15334047966496        1.19915361561839       -0.00347206495891
N            2.25986621664326        0.08823852837394       -0.02009467177575
C            2.58586825911921       -1.25454532148622        0.02068919448107
N            1.40974316087413       -1.97333245590670        0.02151369681501
C            0.37220827602512       -1.11235646751999        0.01210521975270
C            0.87195804611967        0.17978812737794       -0.00127819225909
C            0.05192298617216        1.32295291183865        0.00234126441875
O            0.40976969179365        2.50547991385360       -0.06331483946224
N           -1.33925862176355        1.02417273433675        0.09398791517859
C           -2.13723509784609        2.28070686364223        0.02866369848503
C           -1.87844455551369       -0.24900454588863        0.00514739455453
O           -3.06473040337341       -0.49926885601555       -0.05729828848796
N           -0.96836374588159       -1.35652127392114       -0.00099991643707
C           -1.42095358527967       -2.73868093557483       -0.01013142817226
H            3.62465833092818        1.31148558433915        0.97790229518515
H            3.92971231059039        1.07070076885836       -0.75957768906919
H            2.56656404859097        2.09248275530227       -0.21698800930435
H            3.57108397761838       -1.65229152612849        0.01407314252586
H           -1.84598862044727        3.24095461823498        0.66011196830264
H           -1.81158549475222        2.82733761922323       -0.83517593982372
H           -3.18368369790112        1.95528690277643       -0.03488299920968
H           -1.10138650097093       -3.25765856838403        0.90066702191062
H           -1.01668148151393       -3.27877346501703       -0.87391422014675
H           -2.50649677783334       -2.75818457445083       -0.06300832561651
H            1.38032746687306       -2.97909435131051        0.02996766926076
