25
 energy: -42.437650008870 xtb: 6.6.1 (8d0f1dd)
C            3.14371918194093        1.19368119642708       -0.00030169651869
N            2.25252258077904        0.07214562735608       -0.01314022400480
C            2.57917921535022       -1.24320208163216        0.01841118417186
N            1.43761820506957       -1.98363165568668        0.02632548950206
C            0.37353677886011       -1.14037061201946        0.00859067988936
C            0.86289992030290        0.16340533804544       -0.00693370615620
C            0.03229497272798        1.29685576400591       -0.02127017780786
O            0.38961323680336        2.47176811617676       -0.08620079381773
N           -1.35752320631791        0.95746212824911        0.01424348737659
C           -2.17722496438373        2.03142179145296       -0.11452359224547
C           -1.87208380138886       -0.34384200655149       -0.01238611632221
O           -3.06177076716687       -0.58095342044316       -0.07063503787451
N           -0.95213004461452       -1.40984721309927       -0.00422783771652
C           -1.41008210674579       -2.78350786824130       -0.01129058879737
H            3.60843307335780        1.31302926125865        0.98193560393538
H            3.92232895947402        1.06213295118457       -0.75390279304222
H            2.55427450610005        2.08720018360297       -0.21232913676890
H            3.57369144321401       -1.63567484917770        0.03408823436680
H           -1.78113033484862        4.41697594079726        0.44023269298136
H           -1.70037113755772        2.94293831937275       -0.45116573474640
H           -3.22370331069499        1.89850026458138       -0.04902409977991
H           -1.09770081892439       -3.29116503912971        0.90469612066546
H           -1.00593577696696       -3.31509348232528       -0.87543227385160
H           -2.49495609487936       -2.79851571455051       -0.07512688579287
H            1.40699207125040       -2.99082408049609        0.03934161842075
