72
 energy: -99.280912228846 gnorm: 0.003005323453 xtb: 6.6.1 (8d0f1dd)
N           -2.04353909480286        3.02251639911968        2.18849141557486
C           -1.96338823956764        2.21970737648158        1.23282783708102
C           -3.06641296391066        1.95037306050395        0.24748444546979
C           -3.48602729645573        0.49168095498521        0.34066234228329
C           -4.33119019768631       -0.05014189746504       -0.63039575580674
C           -4.75819001081885       -1.36507053570690       -0.56653527941249
O           -5.58163972288940       -1.96169478145450       -1.45820428005241
C           -6.16341537793263       -1.18570941838494       -2.47828848174710
C           -4.32195352819372       -2.19077691968871        0.50188472967415
O           -4.77998423654157       -3.46237995404207        0.47961454407219
C           -4.47258829807026       -4.31481053632488        1.55676001927207
C           -3.48773280967939       -1.64750665426420        1.46428634326913
C           -3.07887531116503       -0.32136038025260        1.38524097761703
C           -2.45903734013631        2.24394519253748       -1.15025702791781
C           -1.48490383266990        1.16968769037513       -1.66698539184909
C           -0.18602382305703        1.15659441459497       -0.95861639733062
N            0.45965526623955        0.05788567222637       -0.54730298420761
C            1.82737271592806        0.15255857913921       -0.10281024890792
C            2.82508791065697       -0.12895472802838       -1.24686176069108
C            4.23322488670912        0.09809585912649       -0.77904664096476
C            4.76756974834175        1.38176240596568       -0.77988632959763
C            6.05800273882003        1.60151592261826       -0.33061066462604
C            6.80731246925012        0.53655960403688        0.13283255343633
O            8.13543172554416        0.72463047632834        0.61521500489672
C            9.19416339353253        0.48868503503714       -0.42769519050305
C            6.29600834378875       -0.77144123382929        0.15019906912836
O            7.12424485128211       -1.72434755074111        0.62272181363668
C            6.68000605069891       -3.06350964765120        0.66090176208691
C            4.99586007382760       -0.96763090022387       -0.30911429211015
C           -0.12546150271474       -1.25588926970872       -0.66112304909901
C           -4.32973271082095        2.83213257633512        0.47041059739667
C           -4.98141675274102        2.54139800591719        1.82045026995369
C           -4.05168326768708        4.32771467723512        0.34474669795341
H           -4.67032733392401        0.57299604522246       -1.44119132664699
H           -6.73636019635770       -0.34829393587315       -2.06852428641769
H           -6.83679330487148       -1.85713124669129       -3.00752960516591
H           -5.41021153078984       -0.80719651998189       -3.17750715643663
H           -4.83748109304960       -3.91009950072877        2.50559956794361
H           -4.98458427841868       -5.25112094073510        1.34350010960293
H           -3.39576090319268       -4.50022185313273        1.62911872166100
H           -3.15688874263690       -2.24486076202109        2.29843600113529
H           -2.45552464315175        0.07461308237399        2.17207352532322
H           -3.27114062164830        2.33688010996644       -1.87081540930001
H           -1.94138729626812        3.20328916530357       -1.11180312204148
H           -1.96697513214387        0.19450172052812       -1.63365614028954
H           -1.28802878621399        1.40812976083924       -2.72124138205536
H           -1.04548563304262        1.65725215005527        0.97683183483697
H            0.35763868253686        2.08600313039048       -0.88796456242901
H            1.99263154585658       -0.56060442069109        0.70883787456596
H            2.01035366794191        1.15752064822339        0.28466557414505
H            2.59681349774083        0.54338916692580       -2.07572908171784
H            2.70083793261299       -1.15577696957506       -1.59155884110968
H            4.18432934233594        2.21055006690075       -1.14777987185701
H            6.48218783901017        2.59394867071981       -0.34612204976928
H            8.24466114770764        1.65502815685490        0.88179249007822
H            9.12064465991549       -0.53911871392046       -0.75398953173613
H           10.13907720717127        0.73835781494568        0.03631996993253
H            7.51018709809984       -3.63281478422432        1.07395192538424
H            5.80669540148694       -3.17439079957061        1.30962273536086
H            6.44837323304055       -3.43491386977111       -0.34098102532333
H            4.57303903426366       -1.95924257753860       -0.31596484622380
H           -0.24992183545134       -1.54852069320132       -1.70651748062288
H           -1.10227643376065       -1.28040084196370       -0.17178864755509
H            0.52239917622578       -1.98016234041604       -0.17386472598278
H           -5.04339638656024        2.55326096991393       -0.31355477932674
H           -4.31777685837229        2.84004384488112        2.62532991607410
H           -5.21164656914938        1.48393876432060        1.92545928944831
H           -5.90748387416008        3.10370879757640        1.90701327468830
H           -3.31692816712270        4.63603069939623        1.08166206329263
H           -3.69887626664851        4.59321099671888       -0.64830982228793
H           -4.97117281039201        4.87731020514701        0.52893400316430
H           -1.21766902871637        3.14282683050245        2.76751301228298
