72
 energy: -99.348257726587 gnorm: 0.007227791737 xtb: 6.6.1 (8d0f1dd)
N           -1.76240563247673        2.94994296542567        2.04442524880082
C           -1.83501333912050        2.12927468281492        1.10408872593121
C           -3.05403163978780        1.93177570895207        0.24520699080097
C           -3.49058979824275        0.47759823076214        0.31742419831264
C           -4.43481437558887       -0.01492937658854       -0.58555047923934
C           -4.89841474131136       -1.31779947652425       -0.50994137273727
O           -5.81809756434957       -1.86717028525126       -1.33231342395423
C           -6.46890410751999       -1.05267145369636       -2.27850695772138
C           -4.39914354885014       -2.18090709677155        0.50166624266225
O           -4.90796171375855       -3.43084773660256        0.50358113536575
C           -4.55725840606198       -4.30881894322479        1.54736761315227
C           -3.46116893300915       -1.68679078986637        1.39376291667092
C           -3.01838708248329       -0.37399698308045        1.30441205552101
C           -2.62074830966468        2.30597108733334       -1.19800762438514
C           -1.71833655772713        1.27420133431508       -1.89246457850784
C           -0.32151543819237        1.29151737275052       -1.38785040269949
N            0.48254875445702        0.23188532329007       -1.28516468110210
C            1.75404386688420        0.34356996975260       -0.88759118841749
C            2.72906498303371       -0.77949018642642       -0.81937200939189
C            4.14204364799807       -0.40315605037584       -0.46008122086445
C            4.64955280270734        0.97216043864720       -0.72742121429267
C            6.08044716873934        1.17472813440860       -0.36661186355103
C            6.86771890683284        0.19254464205520        0.13882943476368
O            8.15964724086372        0.31261267487945        0.50599651524035
C            8.78566237074990        1.56920921307856        0.37888676671805
C            6.32362251204371       -1.12844155439497        0.33483944186932
O            7.18846625061367       -2.03040673687828        0.80571749875624
C            6.77975341002141       -3.36127932337300        1.02554258257436
C            4.97415850389195       -1.36754788342248        0.03814100880463
C           -0.07399527143586       -1.07497846757992       -1.59383208215596
C           -4.26731866462047        2.81065741884831        0.67197360647515
C           -4.73506945058932        2.47031578041895        2.08510402597098
C           -3.99780083488872        4.30934522290507        0.56790496761530
H           -4.82484047862796        0.63706463746177       -1.34953629605775
H           -6.97143310023936       -0.20627395228683       -1.80071739833495
H           -7.21197671352184       -1.69183852439816       -2.75147893982941
H           -5.77383320961257       -0.68432800127382       -3.04028184405015
H           -4.81969956761332       -3.89345498761438        2.52494238108828
H           -5.13438999951179       -5.21485970072719        1.37344791065577
H           -3.48974245438230       -4.55105566922475        1.52830935026689
H           -3.07742336660290       -2.31316270254258        2.18266131738467
H           -2.31624518752326       -0.01588050655199        2.04126425314470
H           -3.51786876745417        2.43498474299235       -1.80331531864770
H           -2.10522671619292        3.26632590585715       -1.16814372015713
H           -2.17238106030607        0.28832359438004       -1.80352343262422
H           -1.70528803121582        1.53113225705447       -2.96105238993700
H           -0.99065213602296        1.49921690717670        0.77505070102746
H            0.13243016751662        2.25567628711493       -1.21940054964451
H            4.04776552482496        1.71112798440984       -0.19210920129003
H            2.07188554203848        1.34015817743506       -0.64246367289245
H            2.77183034685199       -1.28269726718072       -1.79879340589700
H            2.39742778347420       -1.53955813032231       -0.09860823991330
H            4.50750886016050        1.20555495790564       -1.79611273609362
H            6.46303259152590        2.16990610372647       -0.52074576276210
H            8.29465839751997        2.32271483133451        1.00213919848061
H            8.79816093255863        1.90623145228340       -0.66163879937136
H            9.80683655875465        1.42369524452590        0.72485036903031
H            7.65939253841533       -3.87728922450751        1.40549611236318
H            5.97898573523360       -3.41734644342611        1.76862730704334
H            6.45402503139273       -3.83764582923130        0.09604276158026
H            4.57936864188961       -2.35843240927736        0.20932852505232
H           -0.37086277044449       -1.11322813715039       -2.64199620014334
H           -0.95048185114003       -1.26101512748988       -0.97160276183314
H            0.65198022171142       -1.85782576276685       -1.40684983828726
H           -5.08220398294205        2.56366448155086       -0.01888470156296
H           -3.96744588032392        2.73549881136910        2.80527028395068
H           -4.96050257021074        1.41084400129691        2.18110407334288
H           -5.63541089448008        3.03331989064066        2.31676940327196
H           -3.15546192128590        4.58296136300482        1.19529742344762
H           -3.79996818413941        4.61676033026184       -0.45535140058265
H           -4.87297667059294        4.85273979561160        0.91485632684783
H           -0.87821277163449        3.02405228449181        2.53825187754819
