25
 energy: 0.000000000000 xtb: 6.6.1 (8d0f1dd)
C            3.23720163006194        1.16630919979326        0.08434469647475
N            2.29877817382611        0.07527477071623        0.03981603040599
C            2.58028210190900       -1.21425402444508        0.03006176031096
N            1.43813958087363       -1.93419271955128        0.00098261760884
C            0.39035688448383       -1.05887472636071       -0.00790371836672
C            0.93510056364412        0.21347819449412        0.01709077491437
C            0.09450143893243        1.40504303904423       -0.00410947031874
O            0.49712751527797        2.54126714362870       -0.00342325688240
N           -1.25076640035757        1.06271879480407       -0.03085478223738
C           -2.21907211982101        2.15522099834493       -0.05001256985998
C           -1.81739487048744       -0.20012725993278       -0.04692818574614
O           -2.99983886758376       -0.37846417018721       -0.07008878229737
N           -0.92618586207120       -1.30210215599479       -0.03682761578324
C           -1.46982264913417       -2.64643102187190       -0.06029820460571
H            3.71247264356769        1.21471455160235        1.06488849150277
H            4.00791497605742        1.03430808813993       -0.67357694370751
H            2.69910007168542        2.09770118228144       -0.09130154882931
H            3.56654120610678       -1.63682992603973        0.04233140067262
H           -1.67107961066214        3.09322851271934       -0.02552706933167
H           -2.82428953597071        2.09428624779827       -0.95318082946668
H           -2.87644029173232        2.07745725625962        0.81450067533302
H           -1.17061996399332       -3.19584890659852        0.83242232437030
H           -1.14560257411436       -3.17511610292205       -0.95688275822323
H           -2.55549792440841       -2.55659984320617       -0.07459039797972
H            1.38130855184625       -2.94313852034425       -0.01389874181052
25
 energy: -2.653441269291 xtb: 6.6.1 (8d0f1dd)
C            3.25046302514373        1.19293085965676        0.09387248652123
N            2.31828461886004        0.10565155629815        0.04148860132369
C            2.61765988320574       -1.21878453736348        0.03199434779923
N            1.44989984787063       -1.93570090696816        0.00013719274986
C            0.40505749732847       -1.06283083947767       -0.01151904174389
C            0.93898833863856        0.22059372981371        0.01612019994070
C            0.11235079448879        1.39456282476775       -0.00358726823280
O            0.50853589010882        2.56037598545158        0.00073791784221
N           -1.24791338712328        1.04882160408086       -0.03599945013657
C           -2.20965914343664        2.14273903810052       -0.06131644510379
C           -1.81245481978042       -0.20113618202624       -0.05049063256058
O           -3.00841337739029       -0.38150855210873       -0.08145791624082
N           -0.93550667249172       -1.30761686861400       -0.03391608730789
C           -1.53378982596356       -2.63522739186332       -0.04434532871942
H            3.74228220293804        1.22940910914103        1.06979438120852
H            4.01159697403965        1.07451091422148       -0.67911364159144
H            2.69981955325685        2.11870639571522       -0.06229062142126
H            3.60089103924118       -1.63414714561903        0.04857933981366
H           -1.65242220526014        3.07632385957148       -0.03367371160833
H           -2.80901469302594        2.08551609887467       -0.96938256086160
H           -2.87181811677986        2.06894299526529        0.80052865727063
H           -1.12119647810995       -3.23611657495250        0.77044213882196
H           -1.28275644780465       -3.14780197913287       -0.94342020132255
H           -2.65660097796224       -2.62950089472667       -0.02280653009392
H            1.39793114794436       -2.93968449593385       -0.01334193019954
25
 energy: 5.978562895419 xtb: 6.6.1 (8d0f1dd)
C            3.26492751558490        1.22658539950155        0.10892703082527
N            2.33903396815687        0.14001852433856        0.04511082138794
C            2.66138511814075       -1.21491303038392        0.03747010939198
N            1.47296325185738       -1.93060258456106        0.00129699479167
C            0.42295327544127       -1.07551525437104       -0.01265383790180
C            0.94165087365633        0.22428141536215        0.01594029432349
C            0.13830461957752        1.37493363786556       -0.00253467493962
O            0.51602025362944        2.56376085837897        0.00885379322965
N           -1.24182229511724        1.03204953848306       -0.04619803608483
C           -2.19328615488481        2.12825552012346       -0.08225421789042
C           -1.79664616656391       -0.20459902864347       -0.05884126068200
O           -3.00047992431809       -0.38506467124737       -0.10522572893649
N           -0.94616941205921       -1.32066168086137       -0.02451966237619
C           -1.62190535480336       -2.62647040353341       -0.01766114881084
H            3.78862435219785        1.24628413060123        1.07293542346805
H            4.01148323465156        1.14167134663061       -0.68792122419858
H            2.70116700930884        2.15078854047503       -0.00953038487514
H            3.64508834553985       -1.61415524828458        0.06077504489084
H           -1.62559150927926        3.05627123622805       -0.04866349712771
H           -2.78251113488408        2.07333185040416       -0.99766867085502
H           -2.86470223619513        2.05712730379532        0.77309484738691
H           -1.04089260680886       -3.30463850030241        0.67035669474457
H           -1.53005565859470       -3.10431737175970       -0.96031648864856
H           -2.78970918570407       -2.71303081291856        0.09797560638908
H            1.44238448940637       -2.93236211314879       -0.01171393135500
25
 energy: 18.729591019128 xtb: 6.6.1 (8d0f1dd)
C            3.27451496735093        1.25615089972672        0.12153868854831
N            2.35641353686380        0.16319278947383        0.04894449592143
C            2.69699461449116       -1.20470530798732        0.04320790924968
N            1.50493396596450       -1.92508854418350        0.00701345372164
C            0.44114811465873       -1.09421017316920       -0.00419460661848
C            0.94768255085347        0.22061455166723        0.01927231684627
C            0.15982971778254        1.36219714866651       -0.00001207745755
O            0.52035992263713        2.56089457594953        0.01638265826727
N           -1.23300116626288        1.02043290417473       -0.05689958361975
C           -2.17786706716755        2.11610802564051       -0.10507890182260
C           -1.77755110542652       -0.21336105480715       -0.06909984555462
O           -2.98473769026807       -0.39321606598647       -0.13329456538236
N           -0.94809234954869       -1.34117011513886       -0.00549400329608
C           -1.69320387507108       -2.62949750472842        0.01154206932245
H            3.83157131671983        1.25743935886695        1.07023734532442
H            4.00375080887684        1.21108479936495       -0.69956708775579
H            2.70044498899170        2.18141389992645        0.04661387862382
H            3.68664831340740       -1.58555454150022        0.07177053797034
H           -1.60366098396059        3.03988505298038       -0.06493196622805
H           -2.75572791685822        2.06084434090902       -1.02785020333047
H           -2.85874872617503        2.04533130282022        0.74286809834407
H           -0.98888643944100       -3.37429502634687        0.55466459883198
H           -1.80057703608799       -3.04744182585515       -0.98776959442821
H           -2.89355017870872       -2.76996968715740        0.23514228253548
H            1.50352638431446       -2.92805120113443       -0.00797200186595
25
 energy: 28.915867623924 xtb: 6.6.1 (8d0f1dd)
C            3.27966879591656        1.27678456459395        0.12666312077020
N            2.36901547956614        0.17339459745813        0.05031225439082
C            2.71992310188160       -1.19080779285223        0.04540240043835
N            1.53795868447269       -1.91923184467527        0.01619389311641
C            0.45539302410772       -1.11334119683617        0.01476746904772
C            0.95592021186890        0.21172269639549        0.02622402287624
C            0.17448475545850        1.35668536658428        0.00397027492365
O            0.52247322664004        2.55202104611169        0.02361029212418
N           -1.22292673067812        1.01362263007771       -0.06453823658409
C           -2.16522116673216        2.10698523108177       -0.12184082571933
C           -1.75966116115955       -0.22480990524987       -0.08076312390984
O           -2.96523408779626       -0.40352718349550       -0.16260319528147
N           -0.94538600895888       -1.36350261617718        0.01953513339766
C           -1.74328922432440       -2.63971326331019        0.03363523947315
H            3.86741111937467        1.26101892284709        1.05781678999616
H            3.98920678141797        1.26998367304288       -0.71578399980746
H            2.69911243935357        2.20315608600605        0.09372529524523
H            3.71828400478369       -1.55484019517024        0.07486158558527
H           -1.58858646656567        3.02842506598560       -0.07550228987968
H           -2.73376514783620        2.05105226564195       -1.04996632506662
H           -2.85329553600498        2.03492421479624        0.71989332366548
H           -1.00170258326545       -3.41755764128064        0.43986147262795
H           -2.00004940581274       -2.97695446685996       -0.96794666967930
H           -2.96489539628265       -2.82159587127818        0.32420550999299
H            1.56737595851114       -2.92486578126531       -0.00469951559645
25
 energy: 33.774708990576 xtb: 6.6.1 (8d0f1dd)
C            3.27988583044275        1.28204600078499        0.12609812906127
N            2.37404653085909        0.16906106259802        0.05014200680491
C            2.72311162649008       -1.17674054229730        0.04759284795797
N            1.56114434762009       -1.91386650023440        0.02823497045126
C            0.46163892802327       -1.12482699070093        0.03689997375086
C            0.96376087724918        0.20263343813473        0.03420080841583
C            0.17940581244643        1.35910447690489        0.00575570592605
O            0.52290257308991        2.54202061189794        0.02596574914289
N           -1.21364768129386        1.01104169414586       -0.06693954467901
C           -2.15855377759811        2.10144638876960       -0.13390537100538
C           -1.74839048234673       -0.23628196092977       -0.08353345233985
O           -2.94861768482385       -0.41449440861976       -0.18605107996799
N           -0.93931402951829       -1.37915910443414        0.04782502911775
C           -1.75583447160756       -2.65551395459483        0.04522184894149
H            3.88344006126042        1.25575238514421        1.04253678912200
H            3.97220790119313        1.29652011297526       -0.72561781168586
H            2.69959772267280        2.20637883536363        0.11743971843774
H            3.72871928396505       -1.53189663752883        0.07844111380086
H           -1.58469343954672        3.02384643521684       -0.08535371149390
H           -2.72148752917205        2.04401580211172       -1.06465459487246
H           -2.85107684263386        2.03075013604183        0.70386823041539
H           -1.01893310930682       -3.44029002304051        0.31931814474099
H           -2.12052933700593       -2.87249707275956       -0.93432201729606
H           -2.98954163897330       -2.86898887689318        0.39429494736353
H            1.61297319645097       -2.92103270588425        0.00357546603695
25
 energy: 37.263864421809 xtb: 6.6.1 (8d0f1dd)
C            3.27850081780623        1.27751004345774        0.12321965628018
N            2.37447906026427        0.16108269958982        0.05108097180420
C            2.71621012991596       -1.16754729827762        0.05462518761123
N            1.57006909100655       -1.91167733534047        0.04757641237372
C            0.46397454351357       -1.12502639644898        0.06175288210476
C            0.96835569669204        0.20046801415910        0.04353640961950
C            0.17844002572481        1.36284611421658        0.00447766786418
O            0.52415903266532        2.53958625314646        0.01910349720033
N           -1.20714031929429        1.00824234993795       -0.06586078917621
C           -2.15760243349858        2.09667147144251       -0.14819768206650
C           -1.74294551231097       -0.24457148236939       -0.07116353064406
O           -2.93832206559907       -0.42528490186298       -0.19722338851056
N           -0.92962225006411       -1.38212640922555        0.08805596166400
C           -1.73870253932087       -2.66570700591081        0.05331305428289
H            3.88373602203468        1.24610306153276        1.03291290464761
H            3.95916640936900        1.29190307977819       -0.73035207834993
H            2.69839582306886        2.19693704055427        0.11956024811159
H            3.72335061673529       -1.52334894864695        0.09106340067469
H           -1.59009730601627        3.02341567363022       -0.10368728270097
H           -2.71712312739598        2.03444936267805       -1.08051516771258
H           -2.85390709540612        2.03323723208165        0.68705971587870
H           -0.96831735365234       -3.48872055710887        0.17190332264347
H           -2.23380314890087       -2.72033162734889       -0.93207433528162
H           -2.97740877904445       -2.91149113396241        0.47992530904488
H            1.62836932964342       -2.91759069753029        0.02694154878374
25
 energy: 37.297204382926 xtb: 6.6.1 (8d0f1dd)
C            3.27513585520737        1.26967723322563        0.11669529064502
N            2.37059259766307        0.15057882962460        0.04851183833066
C            2.70369104155371       -1.16209840620846        0.05272763684512
N            1.56870096389557       -1.91345129182899        0.05887461710307
C            0.46148794392223       -1.12047338797059        0.07640609314206
C            0.96943651886610        0.20041839096629        0.05051704708817
C            0.17225277584904        1.36386275941588        0.00523787363989
O            0.52573042432732        2.53703372115658        0.01684153729519
N           -1.20289918335536        1.00462454790446       -0.06193835100532
C           -2.15831290619150        2.09300569033888       -0.14890779009614
C           -1.74271071590970       -0.25019102456391       -0.06538859288481
O           -2.93280791726089       -0.43229131553217       -0.20011219444280
N           -0.91960999806276       -1.37861886740557        0.10965947644983
C           -1.71169654678474       -2.67003937803493        0.04379686775145
H            3.88005589832281        1.23520930158695        1.02477673941195
H            3.94972724233425        1.27951570334446       -0.73944948688802
H            2.69295833314026        2.18716616120507        0.11414972338712
H            3.71000200642603       -1.52474837825005        0.09233837514580
H           -1.59566655109008        3.02374900217182       -0.10733672155164
H           -2.71786476381802        2.02919086857770       -1.08107836639058
H           -2.85499783171887        2.03323047911185        0.68629537593853
H           -0.98472949925500       -3.46642760093553        0.08970088459589
H           -2.22872261202606       -2.64015777427201       -0.87001429511834
H           -2.93847229301131       -2.94192324428485        0.47376252688636
H            1.62093388491265       -2.91781341717102        0.04096779086880
25
 energy: 38.121117993933 xtb: 6.6.1 (8d0f1dd)
C            3.27655161732755        1.27136059014591        0.11472792081100
N            2.37203389441060        0.15378401915513        0.04767268907298
C            2.70811925090676       -1.16511261958117        0.05470352387527
N            1.56747685686716       -1.91663514439505        0.06834789766418
C            0.46419701834273       -1.11911664234010        0.08621668346592
C            0.96885922521203        0.20318509934812        0.05407419030377
C            0.17180668813851        1.36105223572385        0.00549766097060
O            0.52725538426122        2.53999672763245        0.00956029976758
N           -1.20380390582461        1.00207108850945       -0.06049136748501
C           -2.15923357102897        2.09035814265955       -0.15285720856156
C           -1.74108552719749       -0.25090492317523       -0.05672943476729
O           -2.93174583590191       -0.43564293662258       -0.19688144707068
N           -0.91561180303502       -1.37719097166879        0.13108238836947
C           -1.70923592753636       -2.66679262071270        0.04064009563966
H            3.88000909407845        1.23930441961723        1.02560672096258
H            3.95406584857364        1.27673533914209       -0.74159505116282
H            2.69165371937065        2.18846081265687        0.10752119684719
H            3.71238920006280       -1.53053365776698        0.09900832021061
H           -1.59642713145733        3.02151325036799       -0.11462175974291
H           -2.71785177825233        2.02230714212400       -1.08554103269416
H           -2.85630277647500        2.03297760109776        0.68219930382318
H           -0.96148756883329       -3.48006780717182        0.02671527112097
H           -2.27349444056472       -2.58322555200896       -0.86217329945477
H           -2.92941239216135       -2.96796730694787        0.49032476573107
H            1.61348952865236       -2.92088768361706        0.05402556845043
25
 energy: 37.622880480958 xtb: 6.6.1 (8d0f1dd)
C            3.27797185206370        1.27339115009685        0.11509917586926
N            2.37321800349906        0.15889613344380        0.04587273440434
C            2.71526509940859       -1.17212642929282        0.05362108570007
N            1.56291670441608       -1.92076460878594        0.06945941394545
C            0.46692038276872       -1.11712051805466        0.08370181800367
C            0.96754089607533        0.20617129408004        0.05247813428079
C            0.17028133445383        1.35725206131364        0.00407102726522
O            0.52802895604476        2.54320863608577        0.00197376215218
N           -1.20743317249027        1.00028522582014       -0.05941864083356
C           -2.16163697156313        2.08898813997010       -0.15183098457937
C           -1.74101376777379       -0.24994906838090       -0.05018375399498
O           -2.93417950106952       -0.43749898097585       -0.18627203118807
N           -0.91291747202753       -1.37610438732335        0.13937785930132
C           -1.70513039368303       -2.66385467830932        0.03140931649910
H            3.87200378672321        1.25020087857919        1.03408880892465
H            3.96758845402403        1.26915747614112       -0.73383919833069
H            2.69283374949273        2.19097619218150        0.09244662849241
H            3.71618490895169       -1.54066261903929        0.10473702075275
H           -1.59678476422060        3.01912352252822       -0.11616931632963
H           -2.72120137715470        2.01861395727779       -1.08397016343965
H           -2.85744221694877        2.03202742863993        0.68421075737806
H           -0.95409298504314       -3.46523730429266        0.00535753276956
H           -2.29292039595660       -2.56292974047230       -0.85683148426391
H           -2.91155911782305       -2.98776627893883        0.48967264746062
H            1.59777267576851       -2.92524888012009        0.05797174590764
25
 energy: 37.106494721287 xtb: 6.6.1 (8d0f1dd)
C            3.27753790274695        1.27195290328339        0.11534999215693
N            2.37189862666341        0.15934517097790        0.04534327678155
C            2.71640966449981       -1.17599442064961        0.05190863178708
N            1.55832016276487       -1.92186439858380        0.06892113773625
C            0.46602771147973       -1.11552588847584        0.08137499504084
C            0.96676386035008        0.20622389362208        0.05125392718492
C            0.16823114384077        1.35666857368290        0.00169198149053
O            0.52822959453024        2.54289461502932       -0.00386928780350
N           -1.20980514198226        1.00185356114016       -0.05889559498966
C           -2.16307745105799        2.09092027670441       -0.15191563893399
C           -1.74241359479523       -0.24773077467789       -0.04400302512781
O           -2.93679484187306       -0.43671785497053       -0.17378642403928
N           -0.91366806137360       -1.37515516408436        0.14652007841142
C           -1.70243899100786       -2.66311750915369        0.02476749210850
H            3.86346262936490        1.25632235193508        1.04081760511924
H            3.97664386505656        1.26002701252864       -0.72699082551857
H            2.69396101180721        2.19093870237233        0.08023081441623
H            3.71547813154379       -1.54551171864450        0.10849275232818
H           -1.59693666848453        3.02016594063839       -0.11819562729947
H           -2.72349369717976        2.01915453422291       -1.08347164377325
H           -2.85814656490925        2.03478313887970        0.68474301825390
H           -0.94610163908735       -3.46495132618405       -0.01256912880939
H           -2.28992046043548       -2.54627121369186       -0.84706266566900
H           -2.89468450028648       -3.00266871582170        0.48850180894750
H            1.58673197576064       -2.92671308790726        0.05787624634808
25
 energy: 35.934083216112 xtb: 6.6.1 (8d0f1dd)
C            3.27696593144296        1.27071605547305        0.11537083014501
N            2.37123710940070        0.15876685182614        0.04547948759885
C            2.71728000109889       -1.17694162212619        0.05000862262528
N            1.55774458985363       -1.92165520995547        0.06927041431292
C            0.46678696110445       -1.11502811817058        0.08035683495357
C            0.96772327014625        0.20515380034093        0.05104002243460
C            0.16697913506120        1.35671540339550       -0.00008512917108
O            0.52756203074954        2.54155348846427       -0.00708097718557
N           -1.21015729707988        1.00175987360457       -0.05877006830870
C           -2.16388341731597        2.09056488773965       -0.15268148758400
C           -1.74178649002916       -0.24868151733540       -0.03947534547912
O           -2.93675756306257       -0.43950561090505       -0.16508432092512
N           -0.91184037979961       -1.37665304759266        0.15294175243601
C           -1.69747949014705       -2.66579570243974        0.02069377626368
H            3.85683132560221        1.26022859002484        1.04550258281570
H            3.98212382157200        1.25307560326210       -0.72242054312391
H            2.69455238574747        2.19069008225216        0.07148681841657
H            3.71559144261912       -1.54576296080084        0.11162763861811
H           -1.59798447478907        3.01986919667127       -0.11989789388112
H           -2.72478307383113        2.01854631591404       -1.08392945989295
H           -2.85898778339998        2.03545873410386        0.68406425541940
H           -0.95050809885896       -3.46090857550573       -0.02452572545417
H           -2.30301495143835       -2.52614299321386       -0.84440862024512
H           -2.87518727192669       -3.01036098113289        0.49001979651335
H            1.58320695521612       -2.92663394172184        0.05753063484506
25
 energy: 35.433862175164 xtb: 6.6.1 (8d0f1dd)
C            3.27627861313553        1.27060959832949        0.11519608399786
N            2.37062839866190        0.15840906419176        0.04612215136255
C            2.71702775145491       -1.17604672929728        0.04858343185270
N            1.55898588874939       -1.92103902847593        0.06945641147979
C            0.46661367321676       -1.11607391909381        0.08002372512857
C            0.96796297039224        0.20395105836587        0.05169909132756
C            0.16761528082167        1.35694443685424        0.00087360933052
O            0.52712445986983        2.54058110132054       -0.00526444133112
N           -1.20927075212444        1.00146245997489       -0.05898114178277
C           -2.16324048525913        2.09000796730505       -0.15315187954067
C           -1.74129113631204       -0.24915234597697       -0.03964992213020
O           -2.93647084179126       -0.43936925486481       -0.16628442901204
N           -0.91240118752417       -1.37787267729553        0.15221551590810
C           -1.70159551325262       -2.66585416888009        0.02007846131770
H            3.85712577414151        1.25955254887697        1.04511765384301
H            3.98080907946304        1.25354894001760       -0.72337036343370
H            2.69434863874846        2.19128136758840        0.07250667258914
H            3.71610877535796       -1.54287447760309        0.11162324064227
H           -1.59782093451668        3.01954825957256       -0.11941545275750
H           -2.72362334072896        2.01870403869049       -1.08479416322554
H           -2.85903818096591        2.03472310973340        0.68307454178518
H           -0.95336671749386       -3.46218216782560       -0.02258494164262
H           -2.30488141875999       -2.52876927396823       -0.84335977030636
H           -2.87217781238288       -3.00497084146634        0.49120670816363
H            1.58676368503485       -2.92609046390150        0.05611310258114
25
 energy: 33.586482795866 xtb: 6.6.1 (8d0f1dd)
C            3.27481469645981        1.26993847533241        0.11486778891297
N            2.36877610025993        0.15764965650080        0.04740577605981
C            2.71567092580112       -1.17486730072934        0.04466193137779
N            1.56020065600731       -1.92027122584797        0.07064062181632
C            0.46523095513723       -1.11802936041876        0.07938256794812
C            0.96752443169418        0.20182147126636        0.05269117424159
C            0.16851808495735        1.35726993871848        0.00244529227533
O            0.52604869377971        2.53919590281951       -0.00217939024879
N           -1.20804624335295        1.00067264395737       -0.05986301974483
C           -2.16202112133211        2.08901533905060       -0.15436754022942
C           -1.74099544608868       -0.24992461571464       -0.04046032600995
O           -2.93637605019486       -0.43823422408576       -0.16828424190381
N           -0.91446642595566       -1.38023257048802        0.15152486576276
C           -1.70885859325015       -2.66669554316161        0.01794474873865
H            3.85758696282601        1.25797738636405        1.04410762194350
H            3.97822462122502        1.25383212507210       -0.72485014136784
H            2.69440737221926        2.19198129845982        0.07440686511586
H            3.71618386682989       -1.53798266668596        0.11416709078016
H           -1.59713322164504        3.01888436501185       -0.11888671002111
H           -2.72106550857132        2.01890405599646       -1.08691555139725
H           -2.85912811881235        2.03336479110068        0.68077866082562
H           -0.95767009223569       -3.46559287309205       -0.02266476038623
H           -2.31070019078843       -2.52612430913191       -0.84362393037984
H           -2.85698555848463       -2.99811010546169        0.50041363928083
H            1.59247387145119       -2.92541405266068        0.05369086275702
25
 energy: 32.212419021683 xtb: 6.6.1 (8d0f1dd)
C            3.27458632003724        1.26985358532099        0.11472324788615
N            2.36841582811227        0.15763087682459        0.04783217464026
C            2.71518880458924       -1.17511248345923        0.04229443890777
N            1.55994028548837       -1.92050948796800        0.07132316447412
C            0.46463618709656       -1.11855977578162        0.07953651807761
C            0.96693537517970        0.20165635182639        0.05280753713990
C            0.16873484415828        1.35705664088224        0.00293202277911
O            0.52565528103122        2.53937982399427       -0.00132038008448
N           -1.20824223968040        1.00027552895158       -0.06012118133718
C           -2.16205496067870        2.08871486680520       -0.15451947165596
C           -1.74125468635727       -0.25006078294212       -0.04104649360418
O           -2.93660830255624       -0.43759981885980       -0.16945115929457
N           -0.91532659842527       -1.38054912184471        0.15065432504388
C           -1.71137450602482       -2.66646878969314        0.01709156286319
H            3.85864961569949        1.25703718459047        1.04300519747729
H            3.97678522714025        1.25481237929541       -0.72594732071270
H            2.69415797796495        2.19186321597199        0.07608030810034
H            3.71578494804554       -1.53755388945788        0.11660947767439
H           -1.59701651289726        3.01851041081892       -0.11874776152099
H           -2.72077885407126        2.01877258329955       -1.08723048448026
H           -2.85931241044923        2.03296370302334        0.68043778791782
H           -0.96079210879176       -3.46676633532062       -0.02025665275700
H           -2.31275735670249       -2.52735964819885       -0.84588784749509
H           -2.84520290913242       -2.99339570484475        0.50348258662892
H            1.59346541916012       -2.92556271106210        0.05275229947888
25
 energy: 30.902650995718 xtb: 6.6.1 (8d0f1dd)
C            3.27474520364006        1.26970062417714        0.11487316174761
N            2.36861357967596        0.15732038151127        0.04782937485849
C            2.71430429432334       -1.17592507441881        0.04023250025594
N            1.55868522554356       -1.92125967285246        0.07178350905959
C            0.46393729165115       -1.11844751943687        0.08016158144764
C            0.96611885484077        0.20226725934293        0.05247702337035
C            0.16844457906940        1.35660184407413        0.00281150478136
O            0.52566941527230        2.53993172083941       -0.00129783919770
N           -1.20915721384647        1.00021451525045       -0.06014293844400
C           -2.16260221148249        2.08901410068892       -0.15446340974855
C           -1.74215896222184       -0.24991120262679       -0.04219851931819
O           -2.93713844418421       -0.43720911323419       -0.17137896636054
N           -0.91595011038419       -1.37961837267041        0.14919409280072
C           -1.71154531242758       -2.66568274544742        0.01683153895281
H            3.86043989368206        1.25524126207720        1.04138976915904
H            3.97475863855848        1.25659410550193       -0.72708569894065
H            2.69350907244658        2.19081599186314        0.07898948838560
H            3.71428299858169       -1.53946829976525        0.12015339866958
H           -1.59697222051114        3.01848728113443       -0.11907402190924
H           -2.72134065462547        2.01874686588615       -1.08708834191714
H           -2.85957858744716        2.03342914010369        0.68065742250141
H           -0.96022347581217       -3.46620062884870       -0.02083165957077
H           -2.31339581944201       -2.52776223763867       -0.84892857784714
H           -2.83339874302489       -2.99174250903815        0.50934137917888
H            1.59216737606040       -2.92610911430096        0.05279812423216
25
 energy: 30.641276998228 xtb: 6.6.1 (8d0f1dd)
C            3.27493994319422        1.26978855570256        0.11496904565473
N            2.36907691757028        0.15713377957032        0.04750740750072
C            2.71421374928897       -1.17645910539157        0.03968250804933
N            1.55796238939984       -1.92169595341667        0.07157074696283
C            0.46395266971861       -1.11810755845760        0.08084230781362
C            0.96595846812345        0.20272727969570        0.05227053274972
C            0.16806218437877        1.35632386920436        0.00249341055476
O            0.52592358486576        2.54005733400487       -0.00201872039274
N           -1.20976315260739        1.00050561378948       -0.05975226939408
C           -2.16302820886885        2.08946760164503       -0.15423809956417
C           -1.74261156201764       -0.24966771222809       -0.04236634337414
O           -2.93740861544228       -0.43740845137534       -0.17152135343016
N           -0.91577151738199       -1.37877624437757        0.14894319075333
C           -1.71031969648382       -2.66515209702598        0.01745229695828
H            3.86104424429090        1.25478181757427        1.04088873899469
H            3.97421251395022        1.25751453175590       -0.72736268930002
H            2.69292989596139        2.19022887729016        0.07989669770191
H            3.71354031216883       -1.54126071514254        0.12146982249639
H           -1.59705200539808        3.01871918558332       -0.11939027981401
H           -2.72204148163370        2.01875019973922       -1.08667158935675
H           -2.85970597168501        2.03413442197275        0.68114456785237
H           -0.95940926053085       -3.46511942878998       -0.02229789245920
H           -2.31259532898235       -2.52906085864751       -0.84936714563698
H           -2.83033053481160       -2.99188466891924        0.50950281885628
H            1.59043513086835       -2.92651167158374        0.05338618597052
25
 energy: 30.530858347197 xtb: 6.6.1 (8d0f1dd)
C            3.27490088349568        1.26980024860881        0.11510855658524
N            2.36938925986623        0.15673277390552        0.04703534055717
C            2.71410764533853       -1.17683797721624        0.03887073819253
N            1.55733167979823       -1.92202793184578        0.07091953484405
C            0.46392077696377       -1.11788534901680        0.08166043804599
C            0.96588394449664        0.20285392801561        0.05226526691735
C            0.16756396328551        1.35610195177973        0.00223513729227
O            0.52619445451478        2.53979575803446       -0.00287435341192
N           -1.21023337261537        1.00096444360188       -0.05908864965771
C           -2.16325719943716        2.09005732009311       -0.15413446568395
C           -1.74310804839752       -0.24936697729737       -0.04226433094950
O           -2.93777684103090       -0.43764806608448       -0.17139119938451
N           -0.91571640180638       -1.37803549124841        0.14891615150711
C           -1.70910175311811       -2.66480733300141        0.01863852013377
H            3.86128455262153        1.25434207315305        1.04065183848070
H            3.97369919336929        1.25828045559197       -0.72741339945033
H            2.69226554844810        2.18968847540006        0.08061552822476
H            3.71275736711495       -1.54291606113246        0.12277586504169
H           -1.59698885521328        3.01911532525292       -0.11983896377466
H           -2.72249682382466        2.01886427963353       -1.08642857410969
H           -2.85978835309303        2.03515605692471        0.68143061278552
H           -0.95757384166350       -3.46316927133773       -0.02629938507652
H           -2.31103892447353       -2.53015456143017       -0.84920020656369
H           -2.82866187770046       -2.99296922035467        0.51048249936250
H            1.58865769099676       -2.92690624785774        0.05436139623907
25
 energy: 30.493519530415 xtb: 6.6.1 (8d0f1dd)
C            3.27468503593742        1.26976272546463        0.11497548858294
N            2.36910671251327        0.15679499455206        0.04704193415769
C            2.71426533439233       -1.17666159692333        0.03824853638351
N            1.55758056592296       -1.92187857347511        0.07077015164718
C            0.46391664016765       -1.11809176061381        0.08186820195903
C            0.96591999518755        0.20251687080179        0.05262039131612
C            0.16761498144724        1.35616219234917        0.00244739176609
O            0.52608945272346        2.53958177338664       -0.00281029387912
N           -1.21000301394805        1.00093827560218       -0.05894332677900
C           -2.16305830905096        2.08992030485359       -0.15425279174707
C           -1.74295811368337       -0.24937269822684       -0.04181300699694
O           -2.93773666038592       -0.43753780534369       -0.17076804800437
N           -0.91587638660436       -1.37837835225051        0.14948106640625
C           -1.70985132744631       -2.66500461138710        0.01906737268386
H            3.86078280551296        1.25467669847736        1.04091689861337
H            3.97398426628414        1.25779814365607       -0.72725850795011
H            2.69238931323131        2.18996233933347        0.07994920340549
H            3.71300406885776       -1.54228782144141        0.12280906309310
H           -1.59695470330898        3.01906247365836       -0.11985939320236
H           -2.72214719052307        2.01875698491089       -1.08664930293583
H           -2.85979985082012        2.03508710998848        0.68115656850647
H           -0.95831677774860       -3.46321131328762       -0.02764084443158
H           -2.31107805159456       -2.53028376929292       -0.84890377094027
H           -2.82844388795217       -2.99245475964803        0.51007060792932
H            1.58909976882453       -2.92682922297223        0.05451030656349
