  72
        -99.33708357
 N         -1.7048287595        2.7381691035        2.4710036214
 C         -1.7194411660        2.1091592676        1.3913673218
 C         -2.9015576309        2.0227830713        0.4648308528
 C         -3.4561901014        0.6043361104        0.4888693998
 C         -4.4543916796        0.2499866100       -0.4656195364
 C         -4.9567052436       -1.0336939076       -0.5424008856
 O         -5.8913520215       -1.4477138689       -1.4284806783
 C         -6.5194926117       -0.4938678854       -2.2574590885
 C         -4.4787207237       -2.0365021562        0.3361147725
 O         -4.8624666601       -3.2853869060        0.1210676154
 C         -4.5863372344       -4.3068038524        0.8832816885
 C         -3.5770446254       -1.6881878932        1.4779016408
 C         -3.0375140841       -0.3007581814        1.3994214958
 C         -2.3633284648        2.3560335334       -0.9504744581
 C         -1.5017974572        1.2490176122       -1.5851610509
 C         -0.1539885240        1.1316167277       -0.9833668319
 N          0.4630757998       -0.0107493575       -0.6862501859
 C          1.8517100314       -0.0103873833       -0.2912699181
 C          2.7870388960       -0.3827393246       -1.4579383582
 C          4.2195243468       -0.2664281465       -1.0169795655
 C          4.8974487980        0.9353032295       -1.1347046855
 C          6.2088336487        1.0566406402       -0.7009267144
 C          6.8675831021       -0.0241195634       -0.1338793906
 O          8.1365435890       -0.0222953206        0.3184502939
 C          8.9043764694        1.1532879182        0.2025715501
 C          6.1784318921       -1.2606632031       -0.0038165754
 O          6.8933039714       -2.2585005684        0.5565761784
 C          6.3065360058       -3.5294010655        0.6991237703
 C          4.8681501029       -1.3580293878       -0.4436440742
 C         -0.1950266129       -1.2873165318       -0.8173728682
 C         -4.0507985601        3.0028438217        0.8422282923
 C         -4.6869415053        2.6314495222        2.1798755560
 C         -3.6047233880        4.4620545367        0.8712083600
 H         -4.8214342928        1.0049231042       -1.1372334161
 H         -6.9983067499        0.2935091305       -1.6678373553
 H         -7.2802774406       -1.0426428211       -2.8090616276
 H         -5.8138905945       -0.0468501957       -2.9646632627
 H         -4.0958457117       -4.2061445068        1.8423517370
 H         -4.8871017123       -5.2701694145        0.4975326089
 H         -2.7367358715       -2.4037436771        1.5188187728
 H         -4.1119404651       -1.8091811667        2.4349287307
 H         -2.3204128529       -0.0385533614        2.1607903705
 H         -3.2080507132        2.5463006016       -1.6115735623
 H         -1.7762098547        3.2733117627       -0.8951820112
 H         -2.0413183162        0.3038584232       -1.5561963906
 H         -1.3680698642        1.5215957650       -2.6405617703
 H         -0.8426882136        1.5730111659        0.9788251158
 H          0.4402812897        2.0303155984       -0.9134336532
 H          1.9922374065       -0.7216928945        0.5271202165
 H          2.1221175474        0.9832658041        0.0717737998
 H          2.5972807297        0.2981195467       -2.2893861958
 H          2.5743906800       -1.4001159319       -1.7884579617
 H          4.4101967845        1.7895417848       -1.5798855500
 H          6.7124833438        2.0025670788       -0.8138334896
 H          8.4677826437        1.9758622813        0.7773481316
 H          9.0170944965        1.4567233036       -0.8425972297
 H          9.8811243443        0.9053630529        0.6134939118
 H          7.0734103006       -4.1561495324        1.1501509677
 H          5.4331984849       -3.4971784899        1.3587909581
 H          6.0192480026       -3.9503057416       -0.2695384191
 H          4.3394611894       -2.2945155091       -0.3572994409
 H         -0.3844668742       -1.5306081890       -1.8652867158
 H         -1.1476571255       -1.2763287924       -0.2829214349
 H          0.4368567435       -2.0622943560       -0.3909368719
 H         -4.8176419006        2.9012744609        0.0661189246
 H         -3.9566258172        2.7237672695        2.9767703097
 H         -5.0683939134        1.6136165374        2.1650998977
 H         -5.5151399244        3.3034742405        2.3877179084
 H         -2.8259429761        4.6031257348        1.6139546708
 H         -3.2417711046        4.7942044806       -0.0977634461
 H         -4.4503622448        5.0883207195        1.1424206965
 H         -0.8381925731        2.7441829546        3.0002570177
