72
 energy: -99.406560730264 gnorm: 0.003662977587 xtb: 6.6.1 (8d0f1dd)
N           -1.86528440445652        2.79252164036336        2.21195569344674
C           -1.82508804152979        2.12108223978232        1.16029330489448
C           -2.98378618313407        1.91461625477748        0.22522319649898
C           -3.46349979787810        0.47296072796774        0.31092762005797
C           -4.42298642514105        0.00890434000866       -0.59140516381834
C           -4.89980317633243       -1.28991702571798       -0.53610213356276
O           -5.83256909737704       -1.81453782645067       -1.35678706076089
C           -6.46724534921820       -0.98582444163983       -2.30219241844543
C           -4.39335608480736       -2.17974848209011        0.44986957329859
O           -4.90491559039838       -3.42652740356031        0.42329443225721
C           -4.51321192225704       -4.34736453922033        1.41433398829209
C           -3.44248998316953       -1.71252944563990        1.34255234133725
C           -2.98671527570120       -0.40150610465604        1.27460309988998
C           -2.43847596245177        2.19357431706819       -1.19948972920595
C           -1.49568675179055        1.09989448413898       -1.73712257899549
C           -0.16283134799992        1.09448255939611       -1.09234064680338
N            0.49423638960896        0.01454031081185       -0.68370587881730
C            1.87169731192389        0.11481997152568       -0.26135115627856
C            2.84353183515351       -0.33784602934490       -1.36772606274326
C            4.26279535114034       -0.13409249294618       -0.91665092114399
C            4.90332878132464        1.07553964711313       -1.13084952036694
C            6.20378858660569        1.27738348054708       -0.69549084317600
C            6.89014792669408        0.27139094519589       -0.03058495436751
O            8.15161106746935        0.35390695712390        0.43068477128116
C            8.88379178744080        1.53979565226068        0.22241882303829
C            6.23886934260706       -0.97222444629399        0.19939171112219
O            6.97729708348964       -1.89396345164519        0.84874809122448
C            6.43122673746326       -3.16806649667828        1.09291004449254
C            4.93754567713234       -1.14971245191229       -0.24352372526727
C           -0.10325727656266       -1.29904740531150       -0.69553132917981
C           -4.18899453813839        2.85113807822889        0.53568766305443
C           -4.82317881903661        2.50829346207232        1.88214228372200
C           -3.82299331991368        4.33217922990659        0.49917303508793
H           -4.81517568822582        0.67890803993593       -1.33823375337760
H           -6.97494533913453       -0.14426145393232       -1.82132487850438
H           -7.20478361686340       -1.61723322729917       -2.79383321347681
H           -5.76008043839681       -0.61029530085966       -3.04891114164079
H           -4.75283613715830       -3.98235733719625        2.41738877294921
H           -5.08301297347733       -5.25239627599443        1.21385747226267
H           -3.44349611397269       -4.57217344949423        1.35267905576217
H           -3.05415608768525       -2.35906395915980        2.11259694921237
H           -2.27032247155763       -0.06421513635407        2.00775470323162
H           -3.27963450137492        2.27883883074582       -1.88644883131315
H           -1.91585806570479        3.15089642538581       -1.19878338980913
H           -1.98350845475223        0.12953079678658       -1.66031359152910
H           -1.34132813515899        1.31286805968378       -2.80286011270676
H           -0.90568033611477        1.63645385909922        0.77510832971131
H            0.39254991124709        2.02131098255724       -1.09538729769572
H            2.02051264426522       -0.50255517380855        0.62858967379400
H            2.09507392909549        1.15084065297361        0.00182744092131
H            2.65075889380960        0.25211031976815       -2.26540729522784
H            2.66895311687936       -1.38889255614461       -1.60052017181354
H            4.39500182858149        1.87117348660536       -1.65410549322097
H            6.67845504187229        2.22603674623591       -0.88488315139168
H            8.41332360485306        2.39374684755884        0.71924507112199
H            9.00109726532996        1.75567182981029       -0.84372822444218
H            9.86207045571514        1.36002651269843        0.66393847222527
H            7.21433737685692       -3.72941705130450        1.59874087787825
H            5.55182935172779       -3.11019945635268        1.74246828873298
H            6.16628125284683       -3.67664932570100        0.16075205813592
H            4.43777554699514       -2.09188450850767       -0.08113820396305
H           -0.26035605366951       -1.65336036809019       -1.71648806160359
H           -1.06512615738671       -1.28582083137331       -0.17647849370648
H            0.55584782788619       -1.99627559629982       -0.18456417336958
H           -4.93577373657005        2.66920707607613       -0.24524772286075
H           -4.12072988944279        2.70688359107023        2.68505018134005
H           -5.11799590422050        1.46241527470744        1.92221442031603
H           -5.70881878922837        3.11924807580097        2.03574077452503
H           -3.04399622967303        4.55095051347445        1.22330933070537
H           -3.50910858442782        4.63549289759249       -0.49486089990015
H           -4.69381046110162        4.92723495291942        0.76944090896635
H           -1.01031681642281        2.88722850370562        2.75072461229782
