72
 energy: -99.300810716218 gnorm: 0.000847115100 xtb: 6.6.1 (8d0f1dd)
N           -1.66511096142590        2.81352412917233        2.29411926528878
C           -1.62790156465246        2.15086881713499        1.23634017568172
C           -2.79527835184814        1.94976018764525        0.31009335139148
C           -3.28179497874430        0.51155201224366        0.40559999792619
C           -4.18374726109259        0.02082037673710       -0.54090985356499
C           -4.66711920114713       -1.27508202191446       -0.47619978853491
O           -5.53529688327479       -1.82772477056776       -1.34929890774948
C           -6.07140465761824       -1.03638961756417       -2.38313406384435
C           -4.24035203937339       -2.12961179707699        0.57586814863535
O           -4.76082439495581       -3.37350468662386        0.55957130731409
C           -4.45565435349520       -4.25698735854083        1.61312775888141
C           -3.34954748238001       -1.63490929018376        1.51461101798131
C           -2.87601437733027       -0.33130921553437        1.42845572763994
C           -2.25664692566886        2.23839482160524       -1.11456691826286
C           -1.34732103296157        1.13538294700658       -1.68298754021522
C            0.01533862797482        1.10445204845192       -1.10354046560242
N            0.66233424887749        0.00884601568764       -0.71760426733576
C            2.10303960105213        0.01454628418326       -0.61463622820292
C            2.73688182843171       -0.52276669029062       -1.90384493091747
C            4.27309208222567       -0.39370669730122       -1.85674362334865
C            4.69848728284287        0.99791427088064       -1.64536823110901
C            5.67216203260616        1.35844802155320       -0.78509183810035
C            6.29475359385093        0.40754836306058        0.05580657022765
O            7.25947323056713        0.65869971824946        0.93397015535387
C            7.80958987787627        1.95505663264769        1.03054463187967
C            5.85227758601912       -0.96600407178842       -0.00052849915101
O            6.48122693341553       -1.77148036042448        0.88762473664774
C            6.17584129790782       -3.14597745749433        0.88751057762868
C            4.89123763049016       -1.34617234611066       -0.87842906238431
C           -0.00367512059492       -1.26170377569632       -0.56339028250431
C           -4.00070784438973        2.88753554658871        0.61969036363924
C           -4.63967616705944        2.55565135160686        1.96598504041041
C           -3.63421615429762        4.36820194861162        0.57517744573946
H           -4.52300614100786        0.66777071078302       -1.33257049177054
H           -6.61664212509238       -0.17418510227295       -1.98761541493549
H           -6.76309338075186       -1.68464484164573       -2.91748280240899
H           -5.29319333449142       -0.69364375021308       -3.07311088841274
H           -4.76894203739146       -3.85130229694422        2.57958349820122
H           -5.01711806911218       -5.16540695925283        1.40402918633447
H           -3.38672396386517       -4.49133209945650        1.64419919169994
H           -3.02110592352577       -2.25473040217529        2.33294903480799
H           -2.20455545888138        0.02728738037098        2.19317359882338
H           -3.10103035734110        2.36428216628124       -1.79112837705592
H           -1.70580893233891        3.17957441437858       -1.09917144941702
H           -1.84244078591618        0.16999299372910       -1.59593047174642
H           -1.22432209599530        1.35341599304589       -2.75227806748259
H           -0.71024321336682        1.66932691592573        0.84149658910226
H            0.60612505335298        2.00634108613172       -1.17358012169302
H            2.41350725171115       -0.59489076565288        0.23810904550915
H            2.45653178231612        1.03628842534990       -0.45521365492140
H            2.36145512013656        0.05946690045766       -2.74654334547267
H            2.46122675874312       -1.56779395074843       -2.05101817163952
H            4.62241069252103       -0.68083746836375       -2.86325813673096
H            5.97228956250581        2.39371579147780       -0.71608582752519
H            7.06723755350655        2.67569222455648        1.38552320927111
H            8.21466449607340        2.28816532435534        0.07121174357860
H            8.61527015318121        1.87785958278794        1.75805825632399
H            6.81483281113926       -3.58779820496177        1.64915102569029
H            5.12693575832534       -3.32309787975345        1.14698227980298
H            6.39480860266886       -3.60437498667290       -0.08158660826456
H            4.56821498613261       -2.37282911931829       -0.94680440446852
H           -0.22651288827640       -1.72050411112648       -1.52965414894265
H           -0.93755059099885       -1.13522482159641       -0.01155434937470
H            0.64146565860905       -1.93407409033180       -0.00207622592959
H           -4.74582123953103        2.69847927674536       -0.16185403560344
H           -3.92643526014050        2.72101014374653        2.76689149744761
H           -4.97526193628723        1.52203998887801        1.99850116858507
H           -5.49994868297608        3.19954221903136        2.12855876207230
H           -2.88655251032932        4.59438038746305        1.32917773650830
H           -3.26092283967181        4.66599332278825       -0.40105396161149
H           -4.52005400176097        4.96106502698001        0.78732059156518
H           -0.80662097670197        2.90524676175522        2.82809761125586
