72
 energy: -99.650111816886 xtb: 6.6.1 (8d0f1dd)
N           -1.11005544733940        2.92358179713206        2.28232551895561
C           -1.92306928165300        2.37830249862507        1.64626313131197
C           -2.84762176567318        2.13686496913203        0.49391654904278
C           -3.47056325221453        0.74110360236679        0.48543500023664
C           -4.36606543732865        0.30920314166164       -0.50222287487008
C           -4.90087101527494       -0.96960842552099       -0.47997105951346
O           -5.75751242106824       -1.49792824351772       -1.40085755850803
C           -6.28670039337157       -0.68646979336882       -2.41854917955288
C           -4.52837045810665       -1.87524844639639        0.54187934113410
O           -5.07905290164005       -3.12031815656337        0.47286828054792
C           -4.76604840221524       -4.04521994592314        1.48486374617230
C           -3.65468833332432       -1.43819788104089        1.51738383482587
C           -3.14334994645698       -0.14869282958458        1.48488815159204
C           -2.11055138235467        2.32774094263533       -0.87952606934045
C           -1.27435749095733        1.13202491570016       -1.31903724693329
C           -0.15869235965209        0.88168276601009       -0.30995230363261
N            0.71259311849152       -0.17582292537918       -0.76715196318799
C            2.08650288990023       -0.14505463348477       -0.30216621189011
C            3.05595181266070       -0.55385765312024       -1.42038108256465
C            4.47475844734963       -0.43921863211239       -0.94358104122802
C            5.19713841751276        0.72569151482734       -1.12600534627454
C            6.50174686834949        0.84156017154778       -0.66019191017351
C            7.10574115423138       -0.21263555349242        0.00007912127241
O            8.37123310483234       -0.21684421683535        0.50636106663827
C            9.16937540460255        0.92542670763863        0.33300807946779
C            6.38056955816330       -1.40973070521349        0.19109649311166
O            7.06323030503013       -2.39492368919883        0.84332920918015
C            6.42910503630935       -3.62740035522500        1.06167207690671
C            5.08294638543045       -1.50409136238520       -0.27866464694052
C            0.12067920617796       -1.49142125565697       -0.86437506105622
C           -4.02142183385713        3.16102098245814        0.52685291623129
C           -4.82157728204748        2.93911235920224        1.80298686483870
C           -3.55175515903189        4.60575734261669        0.42703537612021
H           -4.63526107776217        0.95674824663216       -1.32308922398037
H           -6.80769738395828        0.18864856244144       -2.01330531624985
H           -7.00285080233381       -1.30874962367187       -2.95731147678911
H           -5.50663236686504       -0.36096590320524       -3.11379253260365
H           -5.07814590453030       -3.68754753749178        2.47270416795168
H           -5.32418074045809       -4.94839461336368        1.24168895964451
H           -3.69579169552517       -4.27632693230486        1.50708998793037
H           -3.36089444953507       -2.08640879942355        2.32571947605945
H           -2.48162985391937        0.17470242527083        2.27303493310058
H           -2.85367998103847        2.51779939332065       -1.65594053972541
H           -1.47992418055014        3.21324516324856       -0.85075876676350
H           -1.91295865900170        0.25263226950197       -1.40889040064605
H           -0.83339542233378        1.33762081475429       -2.29416218605090
H           -0.71502616895854        0.79815430657990        0.72147564665986
H            0.46482712685884        1.79309766187737       -0.29226812385720
H            2.27847925954570       -0.80632580598272        0.55510911755918
H            2.33071880755117        0.87716071007453       -0.00680895395032
H            2.89744775814490        0.09486256182863       -2.28432472452387
H            2.84786466105175       -1.58006599595588       -1.72883232623955
H            4.75354345133129        1.55974702246033       -1.64940083794644
H            7.03926190303140        1.76375023574301       -0.82146751664238
H            8.73529508059046        1.80318533811926        0.82319244077664
H            9.33946486861474        1.14891202914117       -0.72605412046432
H           10.12176025359624        0.68866821223473        0.80428387492618
H            7.16913231952234       -4.24846301826807        1.56543949071035
H            5.54782727206244       -3.52136544370199        1.70350094206873
H            6.13837756472059       -4.10792309303805        0.12084658861117
H            4.52237274462045       -2.41600910648081       -0.14459709828376
H           -0.55298564515634       -1.52738105542100       -1.72718000382479
H           -0.46473261345925       -1.79162598662105       -0.00304458083699
H            0.90691810787187       -2.24921500469833       -0.97528154383078
H           -4.65649802437421        2.94800747689323       -0.34657093092747
H           -4.19196498744417        3.09928611372855        2.66760800157142
H           -5.21587831494830        1.92578524589311        1.84130498944256
H           -5.65056856671891        3.64325389098393        1.85391389279798
H           -2.81548222859558        4.81826034618652        1.18901511090231
H           -3.12264580524169        4.82367284232260       -0.54710466434884
H           -4.39659418010893        5.27444848045645        0.57818001516301
H           -0.71091591397765        3.34834640715839        3.85506563325710
