25
 energy: 0.000000000000 xtb: 6.6.1 (8d0f1dd)
C            3.23720132972391        1.16630909158653        0.08434468864950
N            2.29877796055224        0.07527476373246        0.03981602671198
C            2.58028186251803       -1.21425391179017        0.03006175752192
N            1.43813944744728       -1.93419254010258        0.00098261751768
C            0.39035684826767       -1.05887462812143       -0.00790371763344
C            0.93510047688824        0.21347817468824        0.01709077332874
C            0.09450143016486        1.40504290868848       -0.00410946993748
O            0.49712746915594        2.54126690785742       -0.00342325656480
N           -1.25076628431515        1.06271869620815       -0.03085477937476
C           -2.21907191394203        2.15522079838987       -0.05001256521996
C           -1.81739470187490       -0.20012724136556       -0.04692818139228
O           -2.99983858926755       -0.37846413507442       -0.07008877579474
N           -0.92618577614240       -1.30210203518959       -0.03682761236648
C           -1.46982251276835       -2.64643077634382       -0.06029819901142
H            3.71247229913541        1.21471443890471        1.06488839270555
H            4.00791460421487        1.03430799217987       -0.67357688121503
H            2.69909982127087        2.09770098766290       -0.09130154035862
H            3.56654087521359       -1.63682977417947        0.04233139674524
H           -1.67107945562430        3.09322822573871       -0.02552706696334
H           -2.82428927394145        2.09428605349656       -0.95318074103337
H           -2.87644002486466        2.07745706351925        0.81450059976605
H           -1.17061985538665       -3.19584861009707        0.83242224714061
H           -1.14560246782873       -3.17511580834413       -0.95688266944647
H           -2.55549768731684       -2.55659960601237       -0.07459039105944
H            1.38130842369251       -2.94313824728853       -0.01389874052104
25
 energy: 0.271658117578 xtb: 6.6.1 (8d0f1dd)
C            3.24267592484290        1.18844508306363        0.09063698739464
N            2.30498079096650        0.10849231779823        0.02888534366468
C            2.59885118557934       -1.21647727288292        0.01231174121238
N            1.43136279336919       -1.92845561893588       -0.02415919181915
C            0.39507807282182       -1.05165227184897       -0.01674418985685
C            0.92745023242007        0.23146281493340        0.00307923390853
C            0.10556664920470        1.40899133218570       -0.01330029033346
O            0.50610501008204        2.57317789232305       -0.00717187025846
N           -1.25519631834306        1.06571944902012       -0.04244936494101
C           -2.20955139476657        2.17211343270874       -0.04980186036079
C           -1.81754972659247       -0.19110196831967       -0.06017729276461
O           -3.01528258791774       -0.36210035303731       -0.08280159982994
N           -0.93504784989014       -1.31126522540839       -0.02073877148275
C           -1.47180889510357       -2.67838946918672       -0.01104147568318
H            3.71756874927982        1.22407957279755        1.07461258092890
H            4.01430773757678        1.05804415030660       -0.66936460626091
H            2.70144475003128        2.11710688247115       -0.07852196129302
H            3.57769923653128       -1.63745362304798        0.02709180289003
H           -1.64852104223950        3.10508208834470       -0.02560241133603
H           -2.82357359874385        2.12849435713496       -0.94879323559712
H           -2.86170771712158        2.10495479567342        0.82048044929882
H           -1.30061834108995       -3.41900984008380        0.86917833463476
H           -1.08829011462224       -3.21939499485585       -0.86453950911648
H           -2.55473402286740       -2.55011086300384       -0.13696368586474
H            1.37100478156481       -2.93172387940588       -0.04707124493964
25
 energy: 16.714609360140 xtb: 6.6.1 (8d0f1dd)
C            3.24608709713414        1.20937459096567        0.09895566402505
N            2.30583708713549        0.13963886074722        0.01019952828956
C            2.61076422697829       -1.20956721415298       -0.01697222503674
N            1.42548685403089       -1.91199409915803       -0.06050041949686
C            0.39635453101291       -1.04557129698765       -0.03022917386914
C            0.91602088376105        0.24944563414333       -0.01417773470194
C            0.11895204810613        1.41020394089057       -0.02320459295747
O            0.50763310032360        2.59060244305690       -0.01211183238892
N           -1.26037551947112        1.06964212496811       -0.05490441173267
C           -2.19485249184543        2.19591837122844       -0.05019590977215
C           -1.81458445268265       -0.18366673704106       -0.06061050398241
O           -3.01956764157471       -0.34097599691780       -0.10413136921140
N           -0.94618260777523       -1.33281179183783        0.00813294992144
C           -1.48414199084911       -2.72126672103926        0.04114016411695
H            3.72111340205572        1.23136769947662        1.08576695237792
H            4.02257345271731        1.09099979085694       -0.66041711609615
H            2.70774789669933        2.14163952104452       -0.05807116362363
H            3.58453177095394       -1.62567578913822        0.00370240545209
H           -1.61481972759150        3.12067206453612       -0.02718067471741
H           -2.82164578581148        2.17647015375921       -0.94197480173272
H           -2.83837999803758        2.14465851440999        0.82863759033536
H           -1.47814998095335       -3.65981052056518        0.92401964728009
H           -0.99017398710604       -3.28853563768493       -0.74056838989643
H           -2.55570593913786       -2.54915328505485       -0.22519557311314
H            1.36769207689968       -2.91257583176187       -0.09307509727475
25
 energy: 34.352284170784 xtb: 6.6.1 (8d0f1dd)
C            3.24493013221470        1.22058099826509        0.10786491390842
N            2.30179841790791        0.15415127047937       -0.00953700792240
C            2.60953889530998       -1.20036113550358       -0.04774843497255
N            1.42213526380596       -1.89712306031264       -0.09199197031257
C            0.38863125271347       -1.04252625378475       -0.04397734922949
C            0.90643415346761        0.25928519298568       -0.02686394514394
C            0.12622659548208        1.41888197745107       -0.02951478680333
O            0.50690868600292        2.60202055532389       -0.01559896712352
N           -1.26466087315250        1.07927233843502       -0.06358365831483
C           -2.18146487673345        2.22072075901804       -0.05062093887884
C           -1.81738534354885       -0.17468571414873       -0.06108410184736
O           -3.02298671684153       -0.32115906187531       -0.12352571847080
N           -0.95969201817734       -1.34903940220507        0.02777535019910
C           -1.50009539460879       -2.75811512810638        0.07120706598183
H            3.71707406791558        1.22842034397534        1.09751731442288
H            4.02801062852683        1.11771231047760       -0.64799350057684
H            2.71377092761061        2.16040071990299       -0.03581379096185
H            3.58445271960250       -1.61284310283351       -0.02028130319540
H           -1.58162809226706        3.13487701344736       -0.02984808286527
H           -2.81603351025190        2.22141581951892       -0.93689707127532
H           -2.81643416713270        2.18386460303517        0.83526155688763
H           -1.60581049570225       -3.82684158728972        0.97671136217152
H           -0.89750809735302       -3.34830140422195       -0.62546296466285
H           -2.54421863455516       -2.58308436155697       -0.29326067225039
H            1.37022078473680       -2.89849490173291       -0.13569938656923
25
 energy: 49.980016672671 xtb: 6.6.1 (8d0f1dd)
C            3.24402411788812        1.22410170897929        0.11194046224590
N            2.29996292018793        0.15865309065080       -0.02447529772719
C            2.60437711133970       -1.19175810760414       -0.06661886192416
N            1.42230955585144       -1.88467436396988       -0.10699723768745
C            0.38165192177770       -1.03773149857357       -0.05490633569446
C            0.90284482402754        0.26608083829959       -0.03119942554568
C            0.13217674775129        1.43120837294666       -0.03231197774209
O            0.50944662164467        2.61055637160814       -0.01909897568384
N           -1.26598035938387        1.09204367201203       -0.06501509445647
C           -2.17559907481387        2.23759432431786       -0.05231004462215
C           -1.82035687320509       -0.16199646042547       -0.05814703538516
O           -3.02306523260947       -0.30482883346089       -0.13371442279601
N           -0.96651518122159       -1.35145170172546        0.03457692209031
C           -1.50893863509170       -2.77215595455968        0.07585015794033
H            3.71180228580242        1.22403839038486        1.10350476939588
H            4.03066162154380        1.12924954652812       -0.64085132227956
H            2.71701667639107        2.16788017591517       -0.02615105508916
H            3.58146630507900       -1.60298655087320       -0.02947829587369
H           -1.56728363459610        3.14609403988673       -0.03565960330531
H           -2.81213824040876        2.24496269552239       -0.93562849533901
H           -2.80547417871372        2.20852809821705        0.83669414417931
H           -1.68377385962720       -3.98496688675625        1.00451997931426
H           -0.85475750717705       -3.36431811223662       -0.54482273951184
H           -2.51668922251061       -2.60739294519951       -0.32539636455264
H            1.37504559504679       -2.88770112114005       -0.15726993775558
25
 energy: 68.756995637948 xtb: 6.6.1 (8d0f1dd)
C            3.24489084741369        1.22357121827698        0.11011361456613
N            2.30087101389469        0.15705187180707       -0.03856280252729
C            2.59327510822099       -1.17990977396963       -0.07995032535630
N            1.42448692633190       -1.86909462409829       -0.11382555245856
C            0.37311589193521       -1.02716267413683       -0.07254197505842
C            0.90383278571745        0.27554086342360       -0.03103252443152
C            0.14099110922110        1.45032514566970       -0.03509040936536
O            0.51628236626490        2.62068767760277       -0.02162330387866
N           -1.26310028158218        1.11259353630018       -0.06158045940703
C           -2.17404064543313        2.25271901616352       -0.04867138950625
C           -1.82267099027189       -0.13891328792662       -0.06406478083508
O           -3.01939920214868       -0.28376014586260       -0.14138862553669
N           -0.96742514633540       -1.33736481518399        0.01455429278229
C           -1.51763298197775       -2.75790988360063        0.06186904671769
H            3.70916084566005        1.22158932719207        1.10133687471997
H            4.03133988000501        1.13197750180702       -0.64150207735388
H            2.71956022199405        2.16899223443630       -0.02771447698613
H            3.57373891985405       -1.59237636357666       -0.03164336454980
H           -1.56694695116067        3.15998576152836       -0.03499601090198
H           -2.81122783062238        2.25816808136679       -0.92957365910742
H           -2.79937391008450        2.22146747049457        0.84172862584311
H           -1.78586115556676       -4.22135967120867        1.05609245770456
H           -0.79291063845658       -3.36984186255013       -0.43244682387235
H           -2.47882742382476       -2.61286078484657       -0.38237437714940
H            1.38008554592401       -2.87508703036429       -0.17007806185705
25
 energy: 80.048064894921 xtb: 6.6.1 (8d0f1dd)
C            3.24634670853415        1.22422933372334        0.10774010926436
N            2.30223997467579        0.15591037113337       -0.04322864116422
C            2.58464237043986       -1.16887879807358       -0.08328484952684
N            1.42633580409675       -1.85718761031320       -0.11810022935579
C            0.36793358512982       -1.01568230515091       -0.08594859775688
C            0.90703015402892        0.28500473389939       -0.03244838409622
C            0.14775397902057        1.46541090398117       -0.03933790363571
O            0.52176395887469        2.62888832924210       -0.02475776311281
N           -1.25776067146763        1.13014544358974       -0.06135017292550
C           -2.17246289203990        2.26461952223312       -0.04747025494296
C           -1.82097468865824       -0.12018767491830       -0.06831173591359
O           -3.01368860977745       -0.26663519015604       -0.14565035589099
N           -0.96282780672889       -1.31875111241762       -0.00509554844549
C           -1.51825753824123       -2.73067676200324        0.05030725261476
H            3.70794035727731        1.22241056976066        1.09855726468415
H            4.03248155106901        1.13338074105106       -0.64321141339112
H            2.72139089626723        2.17041164942406       -0.03089980068527
H            3.56764505190850       -1.58248392788790       -0.03219478202465
H           -1.57001050601666        3.17365049131481       -0.03568830707092
H           -2.81126505283922        2.26479848622243       -0.92658274242046
H           -2.79562943168263        2.22857086741565        0.84374090011131
H           -1.85955313382453       -4.45753689464903        1.09324715463272
H           -0.76673535526898       -3.36476683054100       -0.34747548150436
H           -2.45368949127655       -2.61024047197058       -0.41833640625584
H            1.38156509147176       -2.86537507616552       -0.17718539899311
25
 energy: 83.624706494891 xtb: 6.6.1 (8d0f1dd)
C            3.24674919785871        1.22273403395071        0.10383609443683
N            2.30558988415783        0.14196485160870       -0.02821906626428
C            2.56985002062034       -1.15345634980756       -0.06833878579613
N            1.43198904473669       -1.85273655412016       -0.11668311232684
C            0.36216255335972       -0.99727124346471       -0.10220292004676
C            0.92111839448121        0.29254395927938       -0.03383608698954
C            0.14648565212184        1.47867470796438       -0.04577818613113
O            0.52468072091781        2.62951927262189       -0.02567557262682
N           -1.24384993392170        1.14887763683777       -0.06413416612624
C           -2.17182007169062        2.27038768572866       -0.04687041283285
C           -1.81761749982358       -0.10059288335251       -0.08438767884485
O           -3.00492866024498       -0.25706219746119       -0.14315295955584
N           -0.94112639885311       -1.26303752051219       -0.07040737460669
C           -1.50043095549241       -2.61668282465959        0.00233695418305
H            3.70595367626968        1.22539019974960        1.09274376578180
H            4.03082215529614        1.13056529069403       -0.64763322592189
H            2.71774804763493        2.16755221082782       -0.03655708911579
H            3.55860734556161       -1.57237587916904       -0.03436667350611
H           -1.58079050425194        3.18501981860088       -0.03457116003455
H           -2.81307804762743        2.25596699029730       -0.92633428106197
H           -2.79781250449117        2.22085428138907        0.84287174720845
H           -1.87909272144790       -4.77486075559599        1.16038689970708
H           -0.79466598326574       -3.34023052693674       -0.25444890849262
H           -2.44211506982015       -2.58906063350238       -0.43529990195915
H            1.37778596288661       -2.86365478222408       -0.17624398688264
25
 energy: 82.776243733105 xtb: 6.6.1 (8d0f1dd)
C            3.24720146132146        1.22098168212989        0.09895191703617
N            2.30869404556653        0.12523678241839       -0.00082245150971
C            2.56114365684097       -1.14443276026186       -0.04641348301984
N            1.44130428785201       -1.86667713553217       -0.11472217986474
C            0.35969462962709       -0.98585616761288       -0.10980386333726
C            0.93803944190379        0.29462563612020       -0.03537152130651
C            0.13122971187277        1.47633361737316       -0.04318822027807
O            0.52574927037491        2.62505192242724       -0.01802211719709
N           -1.22921923819952        1.15076635335039       -0.06553354458562
C           -2.17219138268297        2.26393227591935       -0.04304656134968
C           -1.81987668538351       -0.09786098887632       -0.10799064204988
O           -3.00889312406934       -0.26032399298598       -0.13236154567061
N           -0.92515963237337       -1.20579056809291       -0.15910661045397
C           -1.47715356903639       -2.44215097338750       -0.09325949972554
H            3.70699305630702        1.22683071790103        1.08653824366120
H            4.02724553283956        1.12175830490526       -0.65456493278206
H            2.71053177446194        2.16071333602836       -0.04348015908294
H            3.55400879114888       -1.57294169519528       -0.03508750249348
H           -1.59439974928801        3.18586000914162       -0.02759168095823
H           -2.81533695765620        2.23662053775732       -0.92542953293847
H           -2.80609287282572        2.20197587614331        0.84310213968905
H           -1.80517720558331       -4.94172191354841        1.26015105524134
H           -0.82375558306191       -3.34411998930339       -0.20583835655425
H           -2.49432123418112       -2.56436016472933       -0.43586991198004
H            1.37195587919689       -2.87542191334544       -0.16420512629519
25
 energy: 81.798918765997 xtb: 6.6.1 (8d0f1dd)
C            3.25013995766432        1.22627355228287        0.10320530453236
N            2.31101037958436        0.13242293276699        0.01380873457876
C            2.57170723985372       -1.14594351199247       -0.03219890872365
N            1.45086411146275       -1.87447568731158       -0.11366295906230
C            0.37057685306765       -0.98644312894247       -0.11224172468792
C            0.94249732174068        0.30150321658058       -0.03917807463426
C            0.12850347497207        1.47212017302976       -0.04293781855136
O            0.53146063607574        2.63091042689166       -0.01627828050765
N           -1.22631688644867        1.14596269723155       -0.07575453983883
C           -2.17400744323051        2.25917864515331       -0.05226036163399
C           -1.81623590812439       -0.10320826571442       -0.11643419880663
O           -3.01067584959801       -0.25768729787376       -0.12981688612075
N           -0.92976603267721       -1.21649572203658       -0.17586331811532
C           -1.47487567488470       -2.42212491959737       -0.13494665498236
H            3.71131315605579        1.23760564445336        1.09121164003647
H            4.02803022844711        1.11857691408558       -0.65131575505813
H            2.70759660926988        2.16029799577895       -0.04588011318255
H            3.56101211015494       -1.57615156091426       -0.01497250834002
H           -1.60416286242618        3.18624104168802       -0.03477632906300
H           -2.81452327815710        2.22631185360701       -0.93619646041394
H           -2.81101904943801        2.19199823352350        0.83141186209510
H           -1.70262696712546       -5.02818026103109        1.27682929133322
H           -0.93917280237815       -3.28401074626889       -0.28877095675707
H           -2.52483178908973       -2.52610723775944       -0.32929263593458
H            1.37571677020149       -2.87954619888681       -0.14665443596702
25
 energy: 78.981777324180 xtb: 6.6.1 (8d0f1dd)
C            3.25462233303238        1.22884939586412        0.10534510271629
N            2.31110455693445        0.14840445377143        0.01197271829757
C            2.58147451840166       -1.15120633231709       -0.03342969546064
N            1.45124290540322       -1.86976496890345       -0.12078272023383
C            0.37970848684978       -0.98010663331828       -0.12976150471101
C            0.93942509165168        0.31791081895123       -0.04540631349284
C            0.13747295969530        1.48173855460072       -0.03952505185056
O            0.54516598600984        2.65065700379592       -0.00453961637685
N           -1.22962797356976        1.15847870995581       -0.08403260977669
C           -2.18058594208132        2.26677915590615       -0.04663808065341
C           -1.81150352133314       -0.08595137637123       -0.13839071049306
O           -3.01095988130101       -0.23231543363146       -0.13992305700886
N           -0.94532034146963       -1.23384131148818       -0.20182387044919
C           -1.50157318007029       -2.45682067996334       -0.17744103843915
H            3.71894648509145        1.24189712747125        1.09282742697983
H            4.02805174053282        1.11492420261895       -0.65280624885704
H            2.70871730344465        2.15947739855043       -0.04704594240932
H            3.56406600235413       -1.58079592782915       -0.00270632525650
H           -1.61561575312863        3.19577233511351       -0.02375075404892
H           -2.81780978138126        2.23226087205100       -0.92945078676147
H           -2.81263885742199        2.18515383301029        0.83758784013791
H           -1.69284904906314       -5.08921529025953        1.32635995326586
H           -0.91436312579824       -3.35663247612477       -0.27893772030537
H           -2.54915149038982       -2.48392703770722       -0.30666367161600
H            1.37421483257930       -2.87269760500309       -0.14400341100221
25
 energy: 78.310648362251 xtb: 6.6.1 (8d0f1dd)
C            3.25169995969526        1.22444698001097        0.10416911092698
N            2.30572390074781        0.14736340086584        0.01204892773114
C            2.58017803289601       -1.15730502734150       -0.03369282388914
N            1.44506186118551       -1.87158747477286       -0.11523867273776
C            0.38042508673966       -0.98225525259690       -0.11127982907913
C            0.93365651051568        0.31516877347659       -0.04131121780222
C            0.13262161907217        1.47540263893370       -0.03501472000638
O            0.54141987494311        2.64580716240937       -0.01398122248994
N           -1.23534514115806        1.15410118246659       -0.07847609482613
C           -2.18145173643575        2.26448710996427       -0.04852528467589
C           -1.81105445474329       -0.08687116121248       -0.12431869499863
O           -3.01230052101556       -0.24075295370812       -0.12809063765040
N           -0.94785803121129       -1.23860467707820       -0.18596114280701
C           -1.50366135909415       -2.46333810450491       -0.21809274374885
H            3.71791616602879        1.23610464083578        1.09113367187163
H            4.02613148221686        1.11411726234140       -0.65414276646828
H            2.70861693011312        2.15828176401326       -0.04308316234178
H            3.56143125664416       -1.58455645205495       -0.01080549621542
H           -1.60491585234518        3.18691761455133       -0.03018947323591
H           -2.81834696974093        2.22985370570770       -0.93148265523025
H           -2.81229643236496        2.19219239996606        0.83707397715019
H           -1.64205294404655       -5.02027507617109        1.36847622908232
H           -0.88763267587920       -3.34700558823542       -0.32367218482778
H           -2.58373151396854       -2.48793425574891       -0.31910966449421
H            1.36797925617770       -2.87472982337350       -0.13939951704262
25
 energy: 78.168675357369 xtb: 6.6.1 (8d0f1dd)
C            3.24996391356851        1.22204538456321        0.10569295613255
N            2.30336716494308        0.14402774148126        0.00834320647469
C            2.57618139318891       -1.15621741376640       -0.03576891538674
N            1.44222726589465       -1.86755307571717       -0.11981798141263
C            0.37781044798953       -0.98432175971419       -0.11285769783077
C            0.93041553362183        0.31150315001022       -0.04493511214259
C            0.13278100895751        1.47414930853914       -0.03765908853404
O            0.53819802802949        2.64150113749582       -0.01513410791320
N           -1.23727795457194        1.15446705118941       -0.07952432366469
C           -2.17989021563659        2.26628047471497       -0.04878092222967
C           -1.80974187112153       -0.08390731815461       -0.12423503627142
O           -3.00976078038890       -0.24666523957770       -0.13153346434374
N           -0.94536880359034       -1.23721246987404       -0.18237198218876
C           -1.50750458807158       -2.45505415633076       -0.25160417403755
H            3.71417090445702        1.23427683110201        1.09340207559340
H            4.02820725237246        1.11719696503449       -0.64958256427157
H            2.71107724896487        2.15969400203332       -0.04044483469175
H            3.56012040288556       -1.57950249619386       -0.01257495022386
H           -1.59987438280040        3.18659042011291       -0.02933737373483
H           -2.81783257918191        2.23652022014939       -0.93125578890567
H           -2.81030825200502        2.19561025387683        0.83689462904375
H           -1.62665932808566       -5.04782342765736        1.43017677180335
H           -0.88812370838606       -3.33874743931557       -0.32364849803439
H           -2.58968354509403       -2.48477441549188       -0.32975843452083
H            1.36971974903298       -2.87305493976543       -0.14665047651446
25
 energy: 77.825213900084 xtb: 6.6.1 (8d0f1dd)
C            3.24966805806081        1.22028931402075        0.10499304851221
N            2.30452177865929        0.14041877133280        0.00713936639719
C            2.57389481966274       -1.15624241789234       -0.03478711670252
N            1.44003280167021       -1.86486066789556       -0.11817738454665
C            0.37457335471942       -0.98870419221740       -0.11594259395147
C            0.92905244045908        0.30644300781863       -0.04270371047523
C            0.13697148028489        1.47462569894948       -0.03737131324647
O            0.53640033631953        2.63860780101214       -0.00993330592171
N           -1.23772990570439        1.15457582830813       -0.07657269208004
C           -2.17965212511578        2.26587603490553       -0.04684411151694
C           -1.81012250454451       -0.08132687105143       -0.12463859826102
O           -3.00833156963586       -0.25037372713808       -0.13598545055743
N           -0.94243309854722       -1.23620374350564       -0.17972433737357
C           -1.51185623299397       -2.45648704994938       -0.28693089970571
H            3.71495447470530        1.23463718184461        1.09199447844619
H            4.02703170586096        1.11625014667098       -0.65130030161077
H            2.71165824565532        2.15890052025141       -0.04268125150284
H            3.56074243367626       -1.57672800234618       -0.01225565476158
H           -1.60328895257772        3.18835212779425       -0.02690381775937
H           -2.81698355580094        2.23666532994899       -0.92987015246542
H           -2.81175968331592        2.19438128160824        0.83761385063716
H           -1.61782720346407       -5.03172923555837        1.48474538538974
H           -0.90156522299009       -3.33890006398779       -0.33074216972432
H           -2.58063950396249       -2.48674225808105       -0.34760126729864
H            1.37490193389157       -2.87269602609870       -0.14848608772623
25
 energy: 77.809011215567 xtb: 6.6.1 (8d0f1dd)
C            3.25008230728796        1.22113134112346        0.10606744463018
N            2.30594387561489        0.14047202661611        0.00847544363019
C            2.57347378665957       -1.15619379411547       -0.03505516876636
N            1.44040041914931       -1.86572315862551       -0.11832797835187
C            0.37323205364958       -0.98869463029842       -0.11924631046828
C            0.92999990747288        0.30724556875556       -0.04087956300620
C            0.13867020612343        1.47614762636831       -0.03844368953818
O            0.53645537757708        2.64035598377855       -0.01203979813415
N           -1.23701775819338        1.15494625867757       -0.07543148850913
C           -2.17944742330770        2.26619514385336       -0.04693167279301
C           -1.81298227358178       -0.08057073891550       -0.12434421718621
O           -3.01047636723965       -0.24719218377482       -0.13318013790764
N           -0.94363413025347       -1.23453649376634       -0.18434952617135
C           -1.51162123506847       -2.45135727510537       -0.29958505582925
H            3.71490331841711        1.23425227894644        1.09322410099891
H            4.02675134687490        1.11564654291258       -0.65076392628911
H            2.71077578739935        2.15847213509549       -0.04180843294472
H            3.56004326987415       -1.57830865796197       -0.01252095019160
H           -1.60408690008587        3.18938172246745       -0.02811876590114
H           -2.81714617847280        2.23507925512251       -0.92999729216928
H           -2.81159887240430        2.19507517847585        0.83788362589981
H           -1.61524941552485       -5.04023216805275        1.49174453431972
H           -0.90394593359217       -3.33827089130374       -0.32416869434096
H           -2.57744287719574       -2.49108135055248       -0.34560728805537
H            1.37613201379241       -2.87321093097687       -0.14956128073044
25
 energy: 77.750653279872 xtb: 6.6.1 (8d0f1dd)
C            3.25059477666454        1.22229951997295        0.10543375821146
N            2.30729393480334        0.14125212181942        0.00864350693964
C            2.57407533438019       -1.15645141444110       -0.03528180077412
N            1.44128399742478       -1.86704641033838       -0.11689328610703
C            0.37288520675179       -0.98888906879064       -0.11928990356020
C            0.93079286887736        0.30794680316617       -0.03825355968393
C            0.14022771305038        1.47665507251577       -0.03838938782180
O            0.53597669691068        2.64177299661039       -0.01298181948515
N           -1.23667764317923        1.15392937414164       -0.07462974241775
C           -2.17944138327135        2.26565923134578       -0.04669409923391
C           -1.81529039042586       -0.08173342346676       -0.12447997075944
O           -3.01181865259648       -0.24593490668060       -0.13266698241561
N           -0.94478916198202       -1.23496607447661       -0.18406444284118
C           -1.51237216086939       -2.45117758151784       -0.31039527780885
H            3.71500683927053        1.23503703283298        1.09265224965592
H            4.02721801791602        1.11519300037738       -0.65125738981293
H            2.71052666072250        2.15833747135472       -0.04333269066757
H            3.55989123329442       -1.58008248746915       -0.01171933835289
H           -1.60455036627770        3.18913316248331       -0.02711751733481
H           -2.81693944510728        2.23473838078806       -0.93012111623442
H           -2.81195201818305        2.19417302295434        0.83797179860194
H           -1.61823764055524       -5.03876503389211        1.48946883339587
H           -0.90342378700109       -3.33538684097376       -0.31674633098711
H           -2.57544973696174       -2.49284988252030       -0.34345628589903
H            1.37738341131630       -2.87381527705161       -0.14936529241256
25
 energy: 77.645191721509 xtb: 6.6.1 (8d0f1dd)
C            3.25066558132767        1.22280639321419        0.10621975494140
N            2.30770150839081        0.14164716278587        0.00836764373735
C            2.57444341585812       -1.15641437094440       -0.03640259433445
N            1.44198085389667       -1.86827148906179       -0.11721835786171
C            0.37293670283329       -0.98853735973472       -0.12025724634596
C            0.93121233171375        0.30836367660401       -0.03733226838529
C            0.14071465863827        1.47644070185157       -0.03873140700469
O            0.53545979873896        2.64223693432339       -0.01288686488412
N           -1.23645150089849        1.15284692476542       -0.07471415070531
C           -2.17945314813499        2.26531074902483       -0.04658819260034
C           -1.81643525324024       -0.08350284086773       -0.12597255587388
O           -3.01237105286690       -0.24582178552999       -0.13283687291909
N           -0.94509748236960       -1.23526797082340       -0.18592157549933
C           -1.51056001024619       -2.45127725537732       -0.32241186921953
H            3.71461319284895        1.23449195641350        1.09369977078879
H            4.02777417649266        1.11547794111285       -0.65000343594852
H            2.71048805035010        2.15834851915577       -0.04221997970858
H            3.55956310640510       -1.58123284784526       -0.01168068222291
H           -1.60465297550176        3.18881953609327       -0.02664416408468
H           -2.81680669868525        2.23478850408162       -0.93016396714560
H           -2.81212828034222        2.19364997680372        0.83801464287006
H           -1.61806275221282       -5.02916695524924        1.48269375176713
H           -0.90549624674257       -3.33768479590833       -0.30387691560028
H           -2.57508467632190       -2.49474377965278       -0.33476864087466
H            1.37726100504101       -2.87427873649109       -0.15132991069118
25
 energy: 77.593225545539 xtb: 6.6.1 (8d0f1dd)
C            3.25041402375495        1.22232314746995        0.10532160579863
N            2.30704062906231        0.14158774929122        0.00794151690399
C            2.57447479800185       -1.15614922038952       -0.03606008761642
N            1.44192000542541       -1.86787300928369       -0.11592760503642
C            0.37326385431201       -0.98807712760089       -0.11807233422485
C            0.93081021500936        0.30825246053885       -0.03689432790553
C            0.14036585355301        1.47625300416505       -0.03801827611488
O            0.53550909492719        2.64186308991295       -0.01273053798677
N           -1.23664775012807        1.15295390303689       -0.07409140286172
C           -2.17961875949220        2.26537595492074       -0.04657175484131
C           -1.81548507399857       -0.08400605369826       -0.12409103887325
O           -3.01168868233861       -0.24600931458847       -0.13198817572195
N           -0.94471795805883       -1.23619065147391       -0.18316172263769
C           -1.50889840583606       -2.45349543419330       -0.32972637004130
H            3.71514291992549        1.23474647215321        1.09245109188203
H            4.02721292571428        1.11519192453290       -0.65121480395336
H            2.71056630123942        2.15824423573784       -0.04302743730710
H            3.55960960390688       -1.58068754408498       -0.01168700156334
H           -1.60443737190846        3.18862507160835       -0.02750061895237
H           -2.81684730463909        2.23428674314679       -0.92992191669283
H           -2.81189696157252        2.19434109710002        0.83821542463229
H           -1.62346656228321       -5.02826415226456        1.47289931625635
H           -0.90186663021575       -3.33628242162052       -0.29270871970761
H           -2.57470577946861       -2.49411575337670       -0.33591718837313
H            1.37616132008026       -2.87386538229597       -0.15048372286690
25
 energy: 77.564728618421 xtb: 6.6.1 (8d0f1dd)
C            3.25018747503812        1.22181598767079        0.10570801372806
N            2.30639859005195        0.14116244342411        0.00789570428527
C            2.57446047442622       -1.15599359413416       -0.03587388664646
N            1.44174205608270       -1.86732945709761       -0.11691792773894
C            0.37371575958190       -0.98812705534795       -0.11839066292528
C            0.93053967791488        0.30760179193316       -0.03869787349687
C            0.13924321380094        1.47576593237463       -0.03821705255238
O            0.53562886981223        2.64085483533494       -0.01189498087305
N           -1.23679362068178        1.15314125559636       -0.07529033961880
C           -2.17968877091783        2.26522195198394       -0.04626783143684
C           -1.81392257555272       -0.08408064308440       -0.12558815885972
O           -3.01079264514470       -0.24721087060444       -0.13311359445860
N           -0.94388749381311       -1.23646869711809       -0.18421972799831
C           -1.50755438518923       -2.45393216241768       -0.33018980601233
H            3.71472785159819        1.23456893045161        1.09298496964210
H            4.02734424222965        1.11563797481152       -0.65059727778492
H            2.71082244854897        2.15846934835613       -0.04248011911431
H            3.56002313278997       -1.57970866373939       -0.01208263604788
H           -1.60415418442903        3.18823837762405       -0.02622655775006
H           -2.81699921775524        2.23517061914825       -0.92957919553255
H           -2.81182698353860        2.19344028988018        0.83844735973916
H           -1.62338472980690       -5.02472977790742        1.47161671201240
H           -0.90387013193773       -3.33835193500170       -0.28733942914041
H           -2.57526928363531       -2.49242828844357       -0.33547815947042
H            1.37552453549886       -2.87369980494924       -0.15117362975430
25
 energy: 77.575969198608 xtb: 6.6.1 (8d0f1dd)
C            3.25015138874072        1.22154199518659        0.10570827533716
N            2.30601585741105        0.14106177297505        0.00833238875974
C            2.57426329208364       -1.15609174460883       -0.03563574166427
N            1.44126609767376       -1.86675359609464       -0.11745840064007
C            0.37377005828993       -0.98823044725442       -0.11799521996288
C            0.93030881121209        0.30740104030179       -0.03929739647061
C            0.13848307760631        1.47578587302349       -0.03756913541176
O            0.53608332760726        2.64050110217046       -0.01149516310830
N           -1.23689622978778        1.15372061881265       -0.07512974325047
C           -2.17963327684054        2.26545079667847       -0.04644874437364
C           -1.81309981244462       -0.08338374816276       -0.12457248760439
O           -3.01045958395224       -0.24732447728718       -0.13250308267510
N           -0.94382893224870       -1.23648703865052       -0.18418047009488
C           -1.50731608181256       -2.45427599479316       -0.32914871147247
H            3.71512869332076        1.23428296208717        1.09278831640879
H            4.02686479546226        1.11566655932971       -0.65105651570526
H            2.71084120917336        2.15856829185518       -0.04206792683396
H            3.56010283149300       -1.57922004190097       -0.01266985801497
H           -1.60415918299418        3.18857221811269       -0.02722645282875
H           -2.81705503781814        2.23481305439129       -0.92960879679901
H           -2.81179699593227        2.19429637736879        0.83828708605620
H           -1.62266749750670       -5.02630011290330        1.47208025186087
H           -0.90389902390936       -3.33856006905902       -0.28635609520833
H           -2.57549159662069       -2.49253182137963       -0.33877824923807
H            1.37523811676603       -2.87347478145488       -0.15096421487100
