25
 energy: 0.000000000000 xtb: 6.6.1 (8d0f1dd)
C            3.23720163006194        1.16630919979326        0.08434469647475
N            2.29877817382611        0.07527477071623        0.03981603040599
C            2.58028210190900       -1.21425402444508        0.03006176031096
N            1.43813958087363       -1.93419271955128        0.00098261760884
C            0.39035688448383       -1.05887472636071       -0.00790371836672
C            0.93510056364412        0.21347819449412        0.01709077491437
C            0.09450143893243        1.40504303904423       -0.00410947031874
O            0.49712751527797        2.54126714362870       -0.00342325688240
N           -1.25076640035757        1.06271879480407       -0.03085478223738
C           -2.21907211982101        2.15522099834493       -0.05001256985998
C           -1.81739487048744       -0.20012725993278       -0.04692818574614
O           -2.99983886758376       -0.37846417018721       -0.07008878229737
N           -0.92618586207120       -1.30210215599479       -0.03682761578324
C           -1.46982264913417       -2.64643102187190       -0.06029820460571
H            3.71247264356769        1.21471455160235        1.06488849150277
H            4.00791497605742        1.03430808813993       -0.67357694370751
H            2.69910007168542        2.09770118228144       -0.09130154882931
H            3.56654120610678       -1.63682992603973        0.04233140067262
H           -1.67107961066214        3.09322851271934       -0.02552706933167
H           -2.82428953597071        2.09428624779827       -0.95318082946668
H           -2.87644029173232        2.07745725625962        0.81450067533302
H           -1.17061996399332       -3.19584890659852        0.83242232437030
H           -1.14560257411436       -3.17511610292205       -0.95688275822323
H           -2.55549792440841       -2.55659984320617       -0.07459039797972
H            1.38130855184625       -2.94313852034425       -0.01389874181052
25
 energy: -1.956228323761 xtb: 6.6.1 (8d0f1dd)
C            3.24278264154643        1.18753150984440        0.09026524508224
N            2.30578521192310        0.10648128337537        0.02985875798592
C            2.59960026679298       -1.21948929602761        0.01415854168824
N            1.43090294267226       -1.93088449408649       -0.02005044941842
C            0.39522863539974       -1.05328295261474       -0.01274521851054
C            0.92784679338360        0.22940130177848        0.00541996469960
C            0.10469633588065        1.40596787610840       -0.01212000591738
O            0.50416022570118        2.57089061250845       -0.00749623758601
N           -1.25630849116029        1.06152051966103       -0.04070744221233
C           -2.21065593510676        2.16713117238614       -0.04994511053387
C           -1.81899859622951       -0.19448830732387       -0.05699080484908
O           -3.01666297149640       -0.36742905375019       -0.08090493643215
N           -0.93526440383848       -1.31102212365775       -0.01978252775636
C           -1.47281823248323       -2.67323144575424       -0.01956351322905
H            3.71840909242914        1.22467135838941        1.07400308538578
H            4.01401779358028        1.05734149730020       -0.67028665008500
H            2.70029030722798        2.11554274884521       -0.07932261064876
H            3.57854078269286       -1.64166552397799        0.02795617614582
H           -1.64792939061723        3.09892161629183       -0.02565100713181
H           -2.82363970895088        2.12356555186127       -0.94968617859962
H           -2.86349830237638        2.10095447322802        0.81989518582041
H           -1.28124308444892       -3.37021136900900        0.86300747626443
H           -1.09615793292111       -3.21288587883165       -0.88082334837052
H           -2.55576165525215       -2.55214605875982       -0.12877744263679
H            1.36889234358734       -2.93415641561283       -0.04267705300746
25
 energy: 7.499052625616 xtb: 6.6.1 (8d0f1dd)
C            3.24570027856197        1.20812534631300        0.09811827435612
N            2.30753673687643        0.13536252919310        0.01112985965150
C            2.61263601980615       -1.21581603719229       -0.01499025179906
N            1.42502818654427       -1.91771094927019       -0.05145333568794
C            0.39711676890722       -1.04976461303639       -0.01824056987088
C            0.91698174771856        0.24416633789750       -0.00862028995525
C            0.11617794935771        1.40210296847933       -0.02043935391741
O            0.50177809643359        2.58398342039738       -0.01388604318599
N           -1.26308017959477        1.05908027943710       -0.05095774527409
C           -2.19623821341023        2.18473858633326       -0.05049959500885
C           -1.81698222748467       -0.19261483000800       -0.05435750754466
O           -3.02149952087246       -0.35548117038669       -0.09938389677203
N           -0.94566075899194       -1.33180100923095        0.01458691579050
C           -1.48451547589071       -2.70947428362577        0.02519568378762
H            3.72244630009820        1.23256149330078        1.08435542263405
H            4.02171874219187        1.09210077532771       -0.66228016786130
H            2.70448155920206        2.13904941721521       -0.05836693032413
H            3.58641938232577       -1.63418217529697        0.00260064162523
H           -1.61081161688904        3.10590947909779       -0.02779333070705
H           -2.82115089797984        2.16640867911471       -0.94374627032555
H           -2.84119141161948        2.13718048792759        0.82745925954017
H           -1.44387821144605       -3.55002694144198        0.91243454935578
H           -1.00600145587028       -3.27449735872249       -0.77403180349732
H           -2.55846131805968       -2.55228584481993       -0.21508320735297
H            1.36366418802151       -2.91808598483082       -0.08471641150919
25
 energy: 15.290457877743 xtb: 6.6.1 (8d0f1dd)
C            3.24265572227023        1.21720967902861        0.10642984008472
N            2.30370705838209        0.14536700668609       -0.00790874026035
C            2.61187370895427       -1.20988763908159       -0.04530659773651
N            1.42287908988007       -1.90821860580851       -0.07682632141665
C            0.39084908060114       -1.05079261820891       -0.02348277370232
C            0.90868989894253        0.24860249371181       -0.01730004776899
C            0.11989823788878        1.40471217098494       -0.02442635090517
O            0.49717279615689        2.58877792328559       -0.01779841775738
N           -1.26839552295956        1.06140602406963       -0.05685023671853
C           -2.18392113920875        2.20169585905448       -0.05099520868958
C           -1.82007436259692       -0.19141169217314       -0.05199920041708
O           -3.02465220008600       -0.34750671364182       -0.11425733846401
N           -0.95632084545140       -1.34747126398927        0.03987409775210
C           -1.49675150280265       -2.73792269734896        0.05019322233785
H            3.71682125948540        1.22765180242653        1.09529493808933
H            4.02498182600589        1.11876732228945       -0.65085951571569
H            2.70654740869401        2.15460341010999       -0.03560104196491
H            3.58685032285736       -1.62502526840371       -0.02391376886554
H           -1.57707995176409        3.11091813016155       -0.03113676966186
H           -2.81502066635891        2.20259751330299       -0.93988185312485
H           -2.82159795171491        2.17036307643064        0.83307936616053
H           -1.54646372780855       -3.62925777930498        0.95448916269218
H           -0.92631582680929       -3.32511256058576       -0.68200116799971
H           -2.55036373510966       -2.58183493639030       -0.28069555199753
H            1.36624569048820       -2.90920203443339       -0.12108582780277
25
 energy: 17.979035828227 xtb: 6.6.1 (8d0f1dd)
C            3.23867994097626        1.21758124355605        0.11175559599797
N            2.30030226489154        0.14490388325990       -0.02145571179483
C            2.60652410927649       -1.20543508716864       -0.06454056981688
N            1.42260810522136       -1.90340520269033       -0.08838849754622
C            0.38423173351164       -1.05185351309004       -0.02735489675044
C            0.90507225118391        0.24819384486655       -0.01951165679658
C            0.12064855610605        1.40915052688474       -0.02525856202813
O            0.49639948417190        2.58936712861075       -0.01939508789352
N           -1.27078699519457        1.06528659145066       -0.05734115957378
C           -2.17854997675533        2.21099099747428       -0.05258372722341
C           -1.82412571520314       -0.18899776607974       -0.04863862146196
O           -3.02621081115179       -0.34327636132200       -0.12107473753797
N           -0.96225548961816       -1.35238456376156        0.05281677014158
C           -1.50158618350074       -2.75012113206278        0.05644368866541
H            3.70813237822668        1.21842531896222        1.10291433468782
H            4.02505977588272        1.12916904468771       -0.64217370167785
H            2.70546384947320        2.15825772030490       -0.02291979007414
H            3.58358328215634       -1.61931902458005       -0.03649443664461
H           -1.56209507196584        3.11373656381801       -0.03638057670076
H           -2.81048805898585        2.21912967931714       -0.93974779909772
H           -2.81259751435485        2.18927088305086        0.83372574958331
H           -1.57834589846768       -3.65649227941358        0.96741354315448
H           -0.89541612809571       -3.33931218394496       -0.63070991298122
H           -2.53200615213429       -2.60838551527372       -0.30516847033148
H            1.36997293228604       -2.90545219468434       -0.13889787015181
25
 energy: 18.293914253681 xtb: 6.6.1 (8d0f1dd)
C            3.23630135345529        1.21419836833212        0.11080552823059
N            2.29884918803467        0.14116958963044       -0.03157115443820
C            2.60129618688025       -1.20313021774048       -0.07583451613773
N            1.42248795776079       -1.90207456134284       -0.08868298976786
C            0.37962091372797       -1.05249880659073       -0.02724788242339
C            0.90430024290828        0.24657049001049       -0.01713535572454
C            0.12116334349788        1.41189688416149       -0.02404397277034
O            0.49818635414356        2.58857017802027       -0.01821984560154
N           -1.27105075845559        1.06757104182707       -0.05391003187465
C           -2.17837741361346        2.21283149574481       -0.05073638208205
C           -1.82735878922295       -0.18658341101123       -0.04694821680719
O           -3.02707668221114       -0.34185769688300       -0.12272460032568
N           -0.96433745980555       -1.35121043715095        0.05987672409381
C           -1.50356297028816       -2.75137667889315        0.05414379272893
H            3.70248195333907        1.21090533333708        1.10283884465931
H            4.02382504428105        1.12821095218995       -0.64121388614158
H            2.70371904780986        2.15515792079500       -0.02259835994774
H            3.57943895985355       -1.61745351509850       -0.03899583868566
H           -1.56177796638812        3.11452790604825       -0.03692091839172
H           -2.80997872578104        2.22086590290379       -0.93736228439532
H           -2.81092407921778        2.19386549250579        0.83589458839013
H           -1.59368841089092       -3.65125277555992        0.97737665368198
H           -0.86581546813012       -3.33769166897846       -0.59782469439371
H           -2.51741995770563       -2.61755013837319       -0.33927403596102
H            1.37191280395443       -2.90463304571214       -0.14265726976757
25
 energy: 17.660787962734 xtb: 6.6.1 (8d0f1dd)
C            3.23616100043850        1.21205131517324        0.10883815075526
N            2.29878988099020        0.13928269977136       -0.03621342188069
C            2.59901775251627       -1.20292702003111       -0.08045430898694
N            1.42154431890205       -1.90286169782500       -0.08553049046310
C            0.37791257895239       -1.05247281851279       -0.02643479572079
C            0.90438824417998        0.24595242200876       -0.01489576408677
C            0.12119789788413        1.41181288274695       -0.02346108119683
O            0.49912670199428        2.58805375785625       -0.01781727152723
N           -1.27063507571709        1.06761333101202       -0.05053541366511
C           -2.17940689358356        2.21177390787147       -0.04933837477904
C           -1.82899256774378       -0.18521440200332       -0.04454832636277
O           -3.02802118324611       -0.34169557211503       -0.12212719389011
N           -0.96487835495727       -1.34842760080553        0.06274079944952
C           -1.50373265368750       -2.74827998385888        0.04923010365232
H            3.70096784102985        1.20860151856581        1.10117609292298
H            4.02420810662320        1.12483205301889       -0.64226711691301
H            2.70368294643352        2.15260382649766       -0.02595487168611
H            3.57679846269433       -1.61854332439378       -0.03421863436732
H           -1.56494455856969        3.11486475073633       -0.03622039927935
H           -2.81099158648265        2.21712141251243       -0.93623135094467
H           -2.81240538658950        2.19222843292126        0.83691558672398
H           -1.59319134034915       -3.64128405986512        0.97563603832037
H           -0.85592400772833       -3.33162690434151       -0.58732769663539
H           -2.50937731913531       -2.61916026272238       -0.35332209684556
H            1.37091986308739       -2.90527006204592       -0.14060426644636
25
 energy: 17.256671495856 xtb: 6.6.1 (8d0f1dd)
C            3.23652808205293        1.21137422935608        0.10714173031996
N            2.29898865784634        0.13901324014563       -0.03859430486259
C            2.59873565836323       -1.20351584469437       -0.08388910838822
N            1.42069565162237       -1.90389547587199       -0.08326791566479
C            0.37767634229002       -1.05246230484105       -0.02525171452388
C            0.90441803922570        0.24588033270729       -0.01398528338572
C            0.12095664368480        1.41105036300140       -0.02327533889169
O            0.49904331291618        2.58797494633482       -0.01773988080013
N           -1.27052254798811        1.06719211410769       -0.04875702075666
C           -2.18012438801114        2.21095554974862       -0.04803721058714
C           -1.82946223748864       -0.18470104430202       -0.04381160005334
O           -3.02853700355625       -0.34191102025559       -0.12114277980985
N           -0.96515910109393       -1.34683895235690        0.06493484680548
C           -1.50371938033891       -2.74614442043996        0.04729846895597
H            3.70100199969545        1.20824571431331        1.09965725823333
H            4.02481734593598        1.12306486279427       -0.64374272721258
H            2.70410935922454        2.15179899456991       -0.02849580788760
H            3.57573098420326       -1.62008673741076       -0.02973913422268
H           -1.56691324134444        3.11507671200666       -0.03467758461318
H           -2.81173880976542        2.21474668533498       -0.93524559692495
H           -2.81373206696992        2.19024932967684        0.83792850599641
H           -1.59578712514928       -3.63445394016031        0.97560198092457
H           -0.84726660844717       -3.32944046479210       -0.58230385899866
H           -2.50717403601873       -2.61810081717804       -0.36407096585564
H            1.36964913704735       -2.90604344962239       -0.13950106164913
25
 energy: 16.925817213969 xtb: 6.6.1 (8d0f1dd)
C            3.23681904047018        1.21140551580789        0.10648041755864
N            2.29912967934767        0.13930877526692       -0.03978984923256
C            2.59921699681926       -1.20402183853124       -0.08728717089699
N            1.42027608069474       -1.90470910662553       -0.08196674903485
C            0.37807241071716       -1.05256246823403       -0.02448652141845
C            0.90448256532086        0.24582942932954       -0.01384693571702
C            0.12052762092815        1.41021696707937       -0.02339627958244
O            0.49858153162166        2.58774770860271       -0.01817807235343
N           -1.27047481491708        1.06675420638335       -0.04795550566242
C           -2.18043267346636        2.21050764024536       -0.04774966857851
C           -1.82931127454328       -0.18477352317940       -0.04314831383400
O           -3.02857700201146       -0.34244836230759       -0.12033718768053
N           -0.96515721565703       -1.34607514912725        0.06664761807663
C           -1.50324410098951       -2.74500140175243        0.04652255980286
H            3.70105414487354        1.20853763596357        1.09923797104515
H            4.02548167729262        1.12262122189345       -0.64415742808835
H            2.70453590821858        2.15189352385732       -0.02955623846882
H            3.57538921015507       -1.62118294794556       -0.02469008021742
H           -1.56773672872984        3.11512790663234       -0.03399056421094
H           -2.81185063084284        2.21348295113164       -0.93531950903585
H           -2.81469718252230        2.18900814060913        0.83790946248907
H           -1.59553315339647       -3.63158080642704        0.97283657022713
H           -0.84762604655105       -3.32735706431173       -0.58224608159618
H           -2.50565899296783       -2.61707278865717       -0.36502016483855
H            1.36894761807173       -2.90662756353161       -0.13947838260492
25
 energy: 16.635697078559 xtb: 6.6.1 (8d0f1dd)
C            3.23685583620529        1.21158494122439        0.10601348619559
N            2.29902446079532        0.13979246442158       -0.04109920750560
C            2.59995096937294       -1.20439573603697       -0.09324489161765
N            1.42000125592953       -1.90529652675450       -0.08119519121612
C            0.37855778038538       -1.05277707793712       -0.02339915955622
C            0.90445649442633        0.24562791924281       -0.01391715996204
C            0.11995080998641        1.40956168722542       -0.02337056078348
O            0.49810827672437        2.58737125569272       -0.01864820089365
N           -1.27051952866383        1.06659321808681       -0.04747686692694
C           -2.18053534364676        2.21047389260338       -0.04760476522795
C           -1.82892826953597       -0.18505921540146       -0.04257603767560
O           -3.02841969202679       -0.34296836323759       -0.11994681810400
N           -0.96521635132869       -1.34573795863563        0.06892589579043
C           -1.50285004507702       -2.74470690941913        0.04698244687222
H            3.70091424921994        1.20852221871083        1.09901291939815
H            4.02583931287153        1.12289901328919       -0.64439748477251
H            2.70482126786466        2.15230520338455       -0.02985407358908
H            3.57511971490590       -1.62189013567294       -0.01825568586732
H           -1.56782700112627        3.11509898225951       -0.03337407731412
H           -2.81161087316743        2.21331021023393       -0.93547787939778
H           -2.81525200242176        2.18844276284017        0.83781726292676
H           -1.59698694664885       -3.62934389989885        0.97063432221389
H           -0.84702822409984       -3.32686698758197       -0.58200191531677
H           -2.50487481846497       -2.61651454182457       -0.36554412064956
H            1.36866333545677       -2.90699781464256       -0.14096834087336
25
 energy: 16.273193203525 xtb: 6.6.1 (8d0f1dd)
C            3.23656376601094        1.21173366356366        0.10565250774641
N            2.29860116031996        0.14029692520321       -0.04278480695753
C            2.60081539605100       -1.20439313214055       -0.10405134392401
N            1.41998245197964       -1.90559989277493       -0.08075987812056
C            0.37907025935173       -1.05313667781273       -0.02176900777292
C            0.90441140296200        0.24511965615695       -0.01382311891556
C            0.11922710234679        1.40909989395762       -0.02302828314678
O            0.49779151977405        2.58665757444636       -0.01893595798948
N           -1.27052823909122        1.06661136467505       -0.04714909789252
C           -2.18046002591004        2.21060571532355       -0.04765309250669
C           -1.82829351253717       -0.18575068639212       -0.04192433024229
O           -3.02792645916663       -0.34360641454026       -0.12012062084690
N           -0.96510936310753       -1.34579597610074        0.07194581833267
C           -1.50243606457632       -2.74533114865418        0.04875231041034
H            3.70038348312142        1.20786756003592        1.09889823288561
H            4.02583058714625        1.12369169595839       -0.64445942554653
H            2.70494946526963        2.15284955629680       -0.02946996439839
H            3.57456880955168       -1.62184278671224       -0.00817662984931
H           -1.56736490756388        3.11485971741064       -0.03308812998297
H           -2.81107158570328        2.21380923596959       -0.93575755553947
H           -2.81542753026753        2.18850852100426        0.83757335939395
H           -1.59913352517058       -3.62698596611204        0.96833217447766
H           -0.84704839265635       -3.32691937455722       -0.58176417320613
H           -2.50418352166888       -2.61624515278968       -0.36531573441278
H            1.36900239147050       -2.90707526924328       -0.14408935584855
25
 energy: 16.045383560586 xtb: 6.6.1 (8d0f1dd)
C            3.23621224565594        1.21164252079133        0.10552362514208
N            2.29817780198029        0.14037187853298       -0.04366526414215
C            2.60110351802152       -1.20396287525981       -0.11346200834189
N            1.42014132141408       -1.90540860016777       -0.08098886467547
C            0.37913456913111       -1.05330468020173       -0.02056893642082
C            0.90441733407880        0.24469445970372       -0.01326669370626
C            0.11894277858198        1.40918879369947       -0.02245267257026
O            0.49792222438913        2.58617265417518       -0.01862331947748
N           -1.27043201261126        1.06671979136105       -0.04705252992134
C           -2.18027518563655        2.21067288956448       -0.04779201651726
C           -1.82796022876446       -0.18633476090212       -0.04162355370593
O           -3.02752078611677       -0.34380907885181       -0.12085829580352
N           -0.96484618421227       -1.34608974186455        0.07343186158788
C           -1.50239892228400       -2.74637981095954        0.05038357394166
H            3.69989718420406        1.20693015272752        1.09883624111632
H            4.02550096252619        1.12416247780716       -0.64443975666698
H            2.70493951550226        2.15303639786290       -0.02886767367077
H            3.57366547105035       -1.62090338918033       -0.00029219853971
H           -1.56685334753585        3.11461676482023       -0.03340821511362
H           -2.81074878322731        2.21426944971959       -0.93585572003331
H           -2.81508744524694        2.18908872295731        0.83745294853755
H           -1.60022902466792       -3.62556425067803        0.96752893569424
H           -0.84709226793483       -3.32748729765340       -0.58157449730338
H           -2.50389567378289       -2.61651230076736       -0.36470049901802
H            1.36949960342156       -2.90678156506445       -0.14663057424428
25
 energy: 15.982196121681 xtb: 6.6.1 (8d0f1dd)
C            3.23601756688888        1.21144927222658        0.10551011071989
N            2.29796187599147        0.14015593844169       -0.04360244250164
C            2.60103950039383       -1.20341581212407       -0.11998161913168
N            1.42035050304041       -1.90498344761193       -0.08166662266030
C            0.37897308469209       -1.05323989111405       -0.01983600622792
C            0.90452467769541        0.24452744992524       -0.01235648376601
C            0.11908207327420        1.40955406688392       -0.02184808044493
O            0.49820205063850        2.58605074242277       -0.01799644386286
N           -1.27028270471903        1.06676319255093       -0.04707080672398
C           -2.18009649568602        2.21058889753215       -0.04794849483305
C           -1.82791526692069       -0.18666667809727       -0.04160037355538
O           -3.02729243928950       -0.34370101491323       -0.12162186408228
N           -0.96445227727000       -1.34641560577895        0.07343842486357
C           -1.50257757468724       -2.74732297071369        0.05138401970570
H            3.69970244451255        1.20625017360646        1.09875813001754
H            4.02515321745781        1.12415281768767       -0.64445773309627
H            2.70493994712494        2.15295312198253       -0.02848087663480
H            3.57265125764086       -1.61965415344438        0.00470353593025
H           -1.56658508867603        3.11446075578195       -0.03406870272044
H           -2.81073378089446        2.21431830115545       -0.93580585165825
H           -2.81456190113086        2.18971128622119        0.83745633775216
H           -1.60019916640838       -3.62537206321122        0.96794400180805
H           -0.84746847740524       -3.32800011234078       -0.58168229604212
H           -2.50398048952423       -2.61678562132166       -0.36413858048477
H            1.36976213119692       -2.90635004357529       -0.14799738622315
25
 energy: 16.038351247413 xtb: 6.6.1 (8d0f1dd)
C            3.23605823122851        1.21122828224655        0.10545815939329
N            2.29799239663780        0.13974870311651       -0.04270029369287
C            2.60085336328003       -1.20294089991082       -0.12527576344096
N            1.42043208177963       -1.90453585329523       -0.08281824926970
C            0.37872253063429       -1.05294923428196       -0.01930098513392
C            0.90475414107176        0.24464564071102       -0.01102899331219
C            0.11953539013866        1.41000831497734       -0.02121225981871
O            0.49839736517488        2.58629794646867       -0.01722565180767
N           -1.27010902687418        1.06670020242711       -0.04705783125018
C           -2.17998281929643        2.21037232529889       -0.04805031983346
C           -1.82812876434313       -0.18666149967970       -0.04178597325835
O           -3.02728546143280       -0.34338908871653       -0.12214741610910
N           -0.96396674066349       -1.34658933798991        0.07227848921322
C           -1.50286845234413       -2.74786633530201        0.05154068967139
H            3.69985359044079        1.20607359071395        1.09858929020315
H            4.02496381930270        1.12361516741989       -0.64460754906377
H            2.70506308858449        2.15270065393157       -0.02858599110210
H            3.57155508252170       -1.61854022321337        0.00887052330406
H           -1.56668550873624        3.11446463087437       -0.03480310842093
H           -2.81099425476913        2.21383388422312       -0.93564532709638
H           -2.81408181274386        2.19011748496758        0.83757376323794
H           -1.59903217459488       -3.62606187974540        0.96908506365746
H           -0.84795891207233       -3.32836921738227       -0.58213681146052
H           -2.50428379212243       -2.61692367964900       -0.36355525969829
H            1.36941130713397       -2.90595097603839       -0.14842429876412
25
 energy: 16.117751444130 xtb: 6.6.1 (8d0f1dd)
C            3.23623478571249        1.21128995836694        0.10534668832237
N            2.29817718291463        0.13967632917601       -0.04196644171220
C            2.60099061909245       -1.20307510184780       -0.12576969054073
N            1.42031792024180       -1.90462624846667       -0.08329954657297
C            0.37882516914144       -1.05283034209549       -0.01919191530196
C            0.90488201894619        0.24482399730677       -0.01067222586293
C            0.11968866324959        1.40995104125183       -0.02114950823815
O            0.49818261824688        2.58650562264627       -0.01727551850101
N           -1.27009663908673        1.06661963594994       -0.04699117089785
C           -2.18004576743575        2.21031600545695       -0.04802018619323
C           -1.82823201017711       -0.18638919566919       -0.04186951309991
O           -3.02740956321008       -0.34337718079087       -0.12181521733067
N           -0.96387318706776       -1.34644710961632        0.07161840151043
C           -1.50281806198630       -2.74741753422178        0.05089823683406
H            3.70013629697061        1.20664544503999        1.09847173764711
H            4.02511020665368        1.12326171282357       -0.64476650280958
H            2.70516607101218        2.15268072543138       -0.02906222790636
H            3.57147728585163       -1.61883905460759        0.00983468178763
H           -1.56696653372100        3.11459335392809       -0.03470644941606
H           -2.81111353785245        2.21348665350604       -0.93564579697007
H           -2.81423735927377        2.18982388753266        0.83758493608587
H           -1.59816467075493       -3.62682898512324        0.96949681122632
H           -0.84833614785403       -3.32813027291471       -0.58267103816667
H           -2.50454021739233       -2.61661830084955       -0.36334173861253
H            1.36885952571484       -2.90606644004123       -0.14800290913362
