  25
        -42.04835926
 C          2.7387238658        0.5298733649       -0.3004002737
 N          1.7513784462       -0.5370303173       -0.2094415515
 C          2.2367051894       -1.8149295629        0.0999127623
 N          1.5613783448       -2.5747551885        0.8301108902
 C          0.4580612887       -0.2069095739       -0.1659988521
 C          0.8343272294        2.2868881016        0.6048896744
 C         -0.0131431120        1.1769742334        0.0893467089
 O          0.5010994420        2.3032655570       -0.6256432765
 N         -1.4131420613        1.0777307208        0.2214381369
 C         -2.2949269031        2.1904260721        0.5050139337
 C         -1.8257342622       -0.1872951331       -0.0095006939
 O         -2.9151631094       -0.6571182488       -0.0184039332
 N         -0.6154253664       -0.9685929312       -0.2601329219
 C         -0.7672652488       -2.3511041703       -0.6012666276
 H          2.5610150341        1.2744358992        0.4918619476
 H          3.7358377180        0.1190288163       -0.1583111445
 H          2.6928880880        1.0263776019       -1.2721935118
 H          3.2360233420       -1.9904278864       -0.3054049800
 H         -2.1445083810        2.9902950470       -0.2225742145
 H         -3.3172511290        1.8217636505        0.4359642089
 H         -2.1086708981        2.5703441256        1.5117307223
 H         -0.3207783071       -2.9804107251        0.1757586119
 H         -0.2821091101       -2.5686212637       -1.5517759644
 H         -1.8389747646       -2.5439351486       -0.6691673050
 H          1.9739501423       -3.4737297532        1.0546415321
