72
 energy: -99.378271296978 gnorm: 0.007681168636 xtb: 6.6.1 (8d0f1dd)
N           -1.78770115007221        2.79950778220338        2.32637808750136
C           -1.71775048676674        2.11738436463773        1.28398055080442
C           -2.84354983608457        1.92946152451460        0.30506983997198
C           -3.31668418107339        0.48414486250011        0.34246152841725
C           -4.21534783729992        0.02396891714244       -0.62213975671185
C           -4.69424505126536       -1.27563339759974       -0.60410496502518
O           -5.56951844166038       -1.79628145632767       -1.48675885001200
C           -6.14371360729931       -0.96301019170793       -2.46642882998560
C           -4.25481633665637       -2.16985571404508        0.41070554743617
O           -4.76680275025137       -3.41372526328314        0.34730364132554
C           -4.45266925177540       -4.33902127805413        1.36216962926973
C           -3.36256164722163       -1.70624844496271        1.36461624819426
C           -2.90277628461809       -0.39577181625473        1.33102094356064
C           -2.24971473167301        2.25912831002871       -1.08931745033727
C           -1.30260189970674        1.18147151692538       -1.64584807409234
C            0.01831427450832        1.14102812505348       -0.97924619462712
N            0.66659137765284        0.03798428482867       -0.62741124223318
C            2.05604745112380        0.09415526852426       -0.23609940900488
C            2.98547843345979       -0.33152859296103       -1.38849041646792
C            4.42478059871252       -0.23282874150988       -0.95788881430864
C            5.20100221939564        0.80556208780966       -1.32103121275822
C            6.62087634903932        0.95291139854808       -0.90589933355578
C            7.10968454147737       -0.07853824718245        0.10226170878214
O            8.18296624582517        0.03078503012846        0.64886565670246
C            6.90529034168270        2.37198020141282       -0.38174708580487
C            6.22072328628815       -1.23834531094461        0.35730851527346
O            6.80654060660309       -2.16760529190705        1.12350950305412
C            6.11058171814258       -3.34806299426338        1.44605404600260
C            4.94923526118827       -1.27588682018726       -0.12943497208669
C            0.05345901056364       -1.26682173935508       -0.70371979439481
C           -4.06824084504151        2.84913885160596        0.59187436691126
C           -4.73517640552096        2.49432905427432        1.91862233346555
C           -3.72251412410002        4.33522082435768        0.56943622168820
H           -4.55840683874713        0.69761976802289       -1.38966514896600
H           -6.67799866660490       -0.12211091682405       -2.01434140878438
H           -6.85097823960618       -1.59093473046724       -3.00462416148380
H           -5.39108362895307       -0.58666151821617       -3.16685760217121
H           -4.76198550167642       -3.97452505295160        2.34604762519939
H           -5.01209523999151       -5.24007022298741        1.11878182744059
H           -3.38285544066572       -4.57047161630937        1.37735356381233
H           -3.02670455032476       -2.35596041525067        2.15639127028638
H           -2.23517950194024       -0.06258361680759        2.11053010334584
H           -3.06788855764979        2.38747815749762       -1.79690726877131
H           -1.71526043762185        3.20782692261341       -1.02885642640742
H           -1.79696401597242        0.21196552624325       -1.62004419136367
H           -1.12182902805931        1.43586865553048       -2.69860818540002
H           -0.79424361330036        1.60909497257970        0.93984057426395
H            0.57308019133459        2.06611580365997       -0.91788533113041
H            2.21309800741141       -0.56141659326955        0.62460993877620
H            2.30793575982436        1.11420742670696        0.06123944114754
H            2.80881481099941        0.32231243862656       -2.24368041796654
H            2.75523491202926       -1.35626308512581       -1.68479713686700
H            4.81300911525340        1.58902324925375       -1.95610094911621
H            6.79017613828205        3.10059964357246       -1.17958896672022
H            6.22412795587451        2.62670581619097        0.42857084794502
H            7.92247240670584        2.41608899683723       -0.00231520888659
H            7.25660506550965        0.80912725664412       -1.78508997084706
H            6.81307945114533       -3.95987159108487        2.00856957509789
H            5.23471934429305       -3.13684757202946        2.06804288992578
H            5.80007526820485       -3.88619854008999        0.54499902337443
H            4.30406291567546       -2.11280196878014        0.09459652879604
H           -0.10327463230585       -1.57193549458201       -1.74057037486186
H           -0.91027537531759       -1.26506452391720       -0.18876717480616
H            0.70034855209005       -1.99590322794354       -0.22248576136725
H           -4.79161360534929        2.65848873702170       -0.20914072404257
H           -4.05397856804737        2.68691969973380        2.74121522222421
H           -5.03243690350015        1.44874070689678        1.94303302403593
H           -5.62334541076530        3.10566743056328        2.05429847223109
H           -2.98159533995329        4.56281895796771        1.32964205509798
H           -3.35091191360739        4.65211694664966       -0.40143471559805
H           -4.61787724980274        4.91171736921005        0.78642435905219
H           -0.95672888544663        2.88425862315924        2.90276765914580
