  25
        -42.16227215
 C          2.8467797272        0.9464753155        0.9503043142
 N          2.1591581897       -0.0764986307        0.1613155736
 C          2.8075998229       -0.9130303368       -0.5156516304
 N          3.3612534986       -1.7446685923       -1.1174697964
 C          0.0198746174       -1.2286644690        0.3238939788
 C          0.7261352751       -0.0862900934        0.1320030167
 C          0.0445820547        1.1827982641       -0.1348793097
 O          0.6133682074        2.2260903526       -0.3648692663
 N         -1.3331004452        1.0747948806       -0.0963745580
 C         -2.1228534171        2.2801712209       -0.3127785423
 C         -2.0695469236       -0.0767691625        0.0949761951
 O         -3.2678912859       -0.0901703729        0.0884415424
 N         -1.3196782218       -1.2476975394        0.3023914745
 C         -2.0443277086       -2.4915430536        0.4758159373
 H          2.5470809531        0.8465776721        1.9934276641
 H          3.9237724675        0.8271972427        0.8634102944
 H          2.5497058065        1.9296247888        0.5796896381
 H          3.9442355129       -2.3355265638       -1.6663846827
 H         -1.4420977206        3.1212899714       -0.4101842118
 H         -2.7208660208        2.1710176954       -1.2165414619
 H         -2.7950939775        2.4269811148        0.5313168251
 H         -1.7067086781       -3.0055327872        1.3740961901
 H         -1.9025527823       -3.1368423045       -0.3916697877
 H         -3.1024158962       -2.2518080993        0.5690712387
 H          0.5100359233       -2.1771220773        0.5066068812
