  25
        -42.15169786
 C          3.2119443042        1.1406441098       -0.1287515542
 N          2.2405064049        0.0800761482       -0.0665264087
 C          2.5076598442       -1.2095066097        0.0435640044
 N          1.3564091104       -1.9119103010        0.0926802487
 C          0.3065122644       -1.0377851444        0.0056922660
 C          0.8715576728        0.2455027592       -0.0828880386
 C          0.1328352798        1.4890979546        0.0148671657
 O          0.5969885970        2.6047618213        0.0608056229
 N         -1.2528202345        1.2119624682        0.1079739888
 C         -2.1338159490        2.0561587876        0.4663600164
 C         -1.9170262081       -0.3566626183       -0.6119261442
 O         -3.0937366715       -0.4269527919       -0.3501031399
 N         -0.9885895294       -1.3296401435       -0.0053900670
 C         -1.5288133437       -2.5938412779        0.4350203417
 H          3.6851900991        1.2763893143        0.8449137415
 H          3.9812793671        0.9036143343       -0.8623282338
 H          2.7127104957        2.0684426616       -0.4015559742
 H          3.4890486133       -1.6398636437        0.0886342025
 H         -1.8880362015        3.0743345644        0.7415083309
 H         -1.5334499144       -0.0675143427       -1.6084576454
 H         -3.1608372351        1.7103527475        0.4807167384
 H         -1.0640939748       -2.9012151798        1.3714781578
 H         -1.4025303837       -3.3733961402       -0.3197983633
 H         -2.5966388661       -2.4392500443        0.5965480963
 H          1.2840066484       -2.9155703484        0.1801284989
