  25
        -42.15649686
 C          3.4118371523        0.8497348782        0.1012310871
 N          2.4072230413       -0.1780578523        0.0505076854
 C          2.6057594373       -1.4826526200       -0.0024735306
 N          1.4200361778       -2.1331020935       -0.0391284931
 C          0.4341741095       -1.1920968739       -0.0107905891
 C          1.0550748404        0.0520004649        0.0514513401
 C          0.3316582530        1.2781471650        0.1085594194
 O         -1.1944257766        3.3755090873       -0.3281865645
 N         -0.9828657138        1.0597115632        0.0725669898
 C         -1.8683186039        2.2602744229        0.0679865947
 C         -1.6834376731       -0.1552358934        0.0246913412
 O         -2.8804157215       -0.2092345032        0.0296352633
 N         -0.8984144405       -1.3255587847       -0.0235395820
 C         -1.5553764684       -2.6173434909       -0.0758798827
 H          3.8849686759        0.8690755441        1.0837235578
 H          4.1750822429        0.6719854055       -0.6554167446
 H          2.9275845743        1.8087922433       -0.0792747232
 H          3.5639931663       -1.9647901272       -0.0171311043
 H         -0.5753631136        3.6905257747        0.3497413830
 H         -2.6657123952        2.0750258082       -0.6570544733
 H         -2.3149003178        2.3385589039        1.0710810018
 H         -1.2960684579       -3.2128350120        0.8001185559
 H         -1.2800559060       -3.1493092930       -0.9870860003
 H         -2.6299248787       -2.4377962951       -0.0787271500
 H          1.3024731129       -3.1360616293       -0.0854921765
