72
 energy: -99.453082971226 xtb: 6.6.1 (8d0f1dd)
N           -2.16916462288142        2.37956772318594        2.46909648571168
C           -2.21848191367049        2.68493772084066        1.30141225602746
C           -2.73800829924825        2.90369585727287        0.13935441597578
C           -3.25911226173344       -0.31871332401436        1.57457751800099
C           -4.04610411205473       -0.10695589250261        0.43727273305425
C           -4.32868293291489       -1.34796968123429       -0.16053463365172
O           -4.96870928542975       -1.60415030650324       -1.35720282400644
C           -5.49713224424997       -0.53415687398890       -2.12551790094260
C           -3.85826872207943       -2.37057140897852        0.64239847033517
O           -3.99378486094046       -3.59730739448343        0.20258678868674
C           -3.43252876820140       -4.54121719154654        1.01208859219972
C           -3.42123856472665       -1.94153315619819        1.94520216802221
C           -2.17695222057815       -1.12133381507336        2.01172639498632
C           -2.05018966993168        2.63768404954902       -1.15595354374101
C           -1.47261642937784        1.23540621252533       -1.29195967154320
C           -0.28776853882267        1.11816855040009       -0.33929382847661
N            0.32944086942035       -0.20314938760489       -0.38917153785444
C            1.74820505647336       -0.35117265492903       -0.07732236638370
C            2.67815114071949       -0.38955620245273       -1.31830205699013
C            4.13206231999256       -0.38386532855625       -0.89808134292993
C            4.90013478147873        0.76329012197493       -0.98968032580656
C            6.23370082884795        0.76237898606097       -0.58083886760419
C            6.82633678246994       -0.36695264206706       -0.03718538417769
O            8.10922796285644       -0.45912613427450        0.42401902340951
C            8.95543497361047        0.66026469194857        0.30176168515775
C            6.05464419803235       -1.54631053906847        0.07497863311814
O            6.71177710102582       -2.59885659852139        0.65341743813571
C            6.00201134456039       -3.79160439310456        0.85541319716784
C            4.73814964970025       -1.53880969186536       -0.37585801800137
C           -0.48451292615838       -1.34527078969606       -0.39871492540128
C           -4.02813321061400        3.65968137825809        0.10641691970722
C           -4.92714269884117        3.55381501521933        1.41205010834937
C           -3.59261524483651        5.05778742840277       -0.22060077365563
H           -4.63985957811284        0.75045613300003        0.11008832873255
H           -6.24358227190304        0.03831092338978       -1.56988435189255
H           -5.95235789278905       -0.96941636005878       -3.01224740478382
H           -4.68886679652275        0.14471627920382       -2.43576830568538
H           -3.72493275883123       -4.45747232781533        2.06757697479097
H           -3.80712159622409       -5.45749051850546        0.58049682836567
H           -2.35929006167080       -4.42400495983136        0.90397774432028
H           -4.07518330541385       -1.28589458147533        2.61103772795177
H           -1.75047589359149       -0.88508761075915        2.94611959467117
H           -2.77692293079353        2.79492256397189       -1.93964521503769
H           -1.25546666768772        3.38630852861645       -1.22446522754384
H           -2.21672276051167        0.48969295176976       -0.99988961397162
H           -1.21279608883257        1.03964904991174       -2.34544306684524
H           -0.69636039192999        1.44046526908205        0.63118070293888
H            0.51412587600740        1.80907126282456       -0.61917093732068
H            1.96220167732646       -1.25644016285662        0.49337874712164
H            2.08061762613998        0.49884833313269        0.51938361109934
H            2.47095464672262        0.48412043405735       -1.93895259976134
H            2.49396693003335       -1.29853228994720       -1.91351136855140
H            4.47382308168334        1.67028964439734       -1.39909618473911
H            6.81454675859504        1.66723233437914       -0.68133774465930
H            8.59230387545725        1.52307693144158        0.87622321703519
H            9.07485437407901        0.95096014048576       -0.74737907232772
H            9.92127947736359        0.34946538754120        0.70078196541332
H            6.68872410065462       -4.48189557598201        1.34477960965385
H            5.14009082548879       -3.62592617907777        1.51035710411517
H            5.67058839858538       -4.22280720327141       -0.10000176649428
H            4.14938796528446       -2.44269951792052       -0.31924240202312
H           -1.27289772811126       -1.32816319992879       -1.13138211204405
H           -1.19511151608794       -1.41577622826997        0.91339954603910
H            0.07632866811200       -2.24436110507998       -0.65664277668563
H           -4.58089719188517        3.31407669935680       -0.77729724964157
H           -4.42133544523422        3.90176279102644        2.31832588974305
H           -5.31303226964841        2.57223431353172        1.67279181038877
H           -5.81670267554650        4.14160785865831        1.30102517252356
H           -3.00087326211065        5.42116762183948        0.61425098253869
H           -3.00345979479741        5.09989223829659       -1.14005342780227
H           -4.50270500451292        5.60390142358996       -0.34371342650165
H           -1.45388944908355        2.48288364108769        3.15127353921771
