25
 energy: 0.000000000000 xtb: 6.6.1 (8d0f1dd)
C            3.23720163006194        1.16630919979326        0.08434469647475
N            2.29877817382611        0.07527477071623        0.03981603040599
C            2.58028210190900       -1.21425402444508        0.03006176031096
N            1.43813958087363       -1.93419271955128        0.00098261760884
C            0.39035688448383       -1.05887472636071       -0.00790371836672
C            0.93510056364412        0.21347819449412        0.01709077491437
C            0.09450143893243        1.40504303904423       -0.00410947031874
O            0.49712751527797        2.54126714362870       -0.00342325688240
N           -1.25076640035757        1.06271879480407       -0.03085478223738
C           -2.21907211982101        2.15522099834493       -0.05001256985998
C           -1.81739487048744       -0.20012725993278       -0.04692818574614
O           -2.99983886758376       -0.37846417018721       -0.07008878229737
N           -0.92618586207120       -1.30210215599479       -0.03682761578324
C           -1.46982264913417       -2.64643102187190       -0.06029820460571
H            3.71247264356769        1.21471455160235        1.06488849150277
H            4.00791497605742        1.03430808813993       -0.67357694370751
H            2.69910007168542        2.09770118228144       -0.09130154882931
H            3.56654120610678       -1.63682992603973        0.04233140067262
H           -1.67107961066214        3.09322851271934       -0.02552706933167
H           -2.82428953597071        2.09428624779827       -0.95318082946668
H           -2.87644029173232        2.07745725625962        0.81450067533302
H           -1.17061996399332       -3.19584890659852        0.83242232437030
H           -1.14560257411436       -3.17511610292205       -0.95688275822323
H           -2.55549792440841       -2.55659984320617       -0.07459039797972
H            1.38130855184625       -2.94313852034425       -0.01389874181052
25
 energy: -2.437433265024 xtb: 6.6.1 (8d0f1dd)
C            3.23792758939724        1.19108970612415        0.08577514858307
N            2.33352286756639        0.07990324096783        0.03637959670648
C            2.63458040395602       -1.26994025350982        0.02900033106308
N            1.43564623652806       -1.93493816159296       -0.00160448497312
C            0.40603161095326       -1.04506926603253       -0.00901662038438
C            0.94579457057877        0.22821182360957        0.01436813462052
C            0.09851459684105        1.40411794811108       -0.00354904241404
O            0.48345064971447        2.57376810558421       -0.00166314841867
N           -1.26677115575304        1.06073903331592       -0.02977091944191
C           -2.23960789246519        2.15125917077856       -0.04855927573420
C           -1.82432158744184       -0.19228364146825       -0.04678374751354
O           -3.02031055927259       -0.37976958943493       -0.07009922548251
N           -0.92805729068032       -1.28787360061967       -0.03684386490322
C           -1.46530290589858       -2.63076985802953       -0.05963627928918
H            3.69567765971275        1.26350111499687        1.07490726632179
H            4.01570225855031        1.06621132226908       -0.66560744392274
H            2.68029690349818        2.11060268880103       -0.10706775290854
H            3.62068803134479       -1.84083002293537        0.04099963390650
H           -1.69390031046180        3.09184523463482       -0.02404758531765
H           -2.84815252023791        2.09414671056721       -0.95135723611325
H           -2.90035486631572        2.07689405815547        0.81528452684585
H           -1.16111081296154       -3.18004715500058        0.83320230714221
H           -1.13419088909444       -3.16067330376497       -0.95470803592455
H           -2.55147019924582       -2.54671895119515       -0.07525735590472
H            1.35793227912374       -2.93434775216002       -0.01731103039597
25
 energy: 12.118639589561 xtb: 6.6.1 (8d0f1dd)
C            3.23440088277403        1.22006154784739        0.08664408877189
N            2.37682020262038        0.07238132264212        0.02947336788646
C            2.69803219480031       -1.33501933121508        0.02636639615716
N            1.43221349174900       -1.92555017300189       -0.00520034469194
C            0.42384137040877       -1.02683623396832       -0.01054628737647
C            0.96396369502424        0.24452856507435        0.01157490722538
C            0.10786277582127        1.40079207877780       -0.00186103715632
O            0.45267802227335        2.59438850703279        0.00110393666068
N           -1.28263293326550        1.06329870933915       -0.02771068464159
C           -2.26322678432512        2.15012048739916       -0.04613249525157
C           -1.82411351064727       -0.18120686544239       -0.04587435570445
O           -3.02474480265376       -0.38126197453069       -0.06977209932020
N           -0.92649924742885       -1.26648845852959       -0.03654578242680
C           -1.45581016104092       -2.60906583984598       -0.05859849311699
H            3.66565832383731        1.33995780621981        1.08688845926467
H            4.03181026442776        1.11799908892836       -0.64748808874859
H            2.64974020435985        2.12247499847135       -0.13371340525837
H            3.66237718202025       -2.12587845503867        0.03729946232080
H           -1.72814822409337        3.09736968302244       -0.02156141338590
H           -2.87730303631981        2.09208844003333       -0.94719306060643
H           -2.92930931861746        2.07412420539863        0.81556210541360
H           -1.14855129926790       -3.15747351133878        0.83503736566718
H           -1.11828412115885       -3.14022977184253       -0.95185409494131
H           -2.54277795363546       -2.53260224733165       -0.07642181220330
H            1.33421745027399       -2.91894397592909       -0.02244273839028
25
 energy: 30.737884177833 xtb: 6.6.1 (8d0f1dd)
C            3.22411762889469        1.23920464421829        0.08612908533334
N            2.40305711160540        0.05725180170933        0.02223869116599
C            2.73612049537601       -1.38545718275992        0.02257682052155
N            1.43521475481779       -1.92457637454823       -0.00864191427713
C            0.43631468924018       -1.01947320824112       -0.01185837451341
C            0.97915685038564        0.25117948974293        0.01011348651717
C            0.11819848315744        1.40526144040757        0.00028893092424
O            0.43422280572276        2.60350176825246        0.00373656629722
N           -1.28746913644148        1.07383573510125       -0.02545182878145
C           -2.27896916536941        2.15343461445801       -0.04336597127554
C           -1.81968034296452       -0.17217230035873       -0.04475527431250
O           -3.01947549509029       -0.38066653183782       -0.06908617082110
N           -0.91927680271298       -1.25094567265018       -0.03605979414882
C           -1.44663181843852       -2.59236329790121       -0.05733295102392
H            3.62413464112321        1.40730058175178        1.09636023351252
H            4.04786223080207        1.16475554938840       -0.62370396266907
H            2.61679402730356        2.12292541574873       -0.16464403587799
H            3.69034049750960       -2.33945713905969        0.03224543920777
H           -1.76031546844186        3.10914739448866       -0.01868202610980
H           -2.89698009234124        2.08880163346396       -0.94253012677379
H           -2.94850571108703        2.06992462137729        0.81628702978102
H           -1.13956532181510       -3.13669409011929        0.83847451022319
H           -1.10548435571406       -3.12187220849993       -0.94974879283602
H           -2.53396782639374       -2.51717195056000       -0.07754085370496
H            1.32300198880810       -2.91664613140054       -0.02801482021123
25
 energy: 42.946994089895 xtb: 6.6.1 (8d0f1dd)
C            3.21479594400200        1.24930625925701        0.08540510218256
N            2.40945449791142        0.05391483031264        0.01753142229831
C            2.74907502544182       -1.40387844750021        0.01886608505570
N            1.44119520853713       -1.92308176220164       -0.01047842119759
C            0.44069170997720       -1.01708073897278       -0.01192884936212
C            0.98390355942446        0.25454589502586        0.01104059855935
C            0.12194339473854        1.41291715813629        0.00187721114890
O            0.42548368027979        2.60750864603751        0.00492623259030
N           -1.28782641760880        1.08183148334742       -0.02406025461177
C           -2.28502028871836        2.15671344433314       -0.04195191755739
C           -1.81771556863225       -0.16830969742044       -0.04378275343751
O           -3.01547623761664       -0.37964248640361       -0.06863856100794
N           -0.91400646865511       -1.24420781892348       -0.03528636080569
C           -1.44248164117557       -2.58588395577173       -0.05640478660045
H            3.59244765288003        1.43443158757348        1.09933026522024
H            4.05246655609557        1.18473645450877       -0.60719462841293
H            2.60290522786722        2.12301608289181       -0.18373409881338
H            3.71828360892228       -2.45155773944455        0.02932273166264
H           -1.77574548236519        3.11668723805825       -0.01723621406483
H           -2.90357522830834        2.08717265363949       -0.94073312502339
H           -2.95483036077526        2.06794132387777        0.81737317357384
H           -1.13702359236816       -3.12779962026061        0.84067849574935
H           -1.10034564360242       -3.11432036340853       -0.94826828738980
H           -2.53002285628004       -2.51077230029216       -0.07819662669500
H            1.32363838796493       -2.91515952422769       -0.03142253691410
25
 energy: 59.728349821973 xtb: 6.6.1 (8d0f1dd)
C            3.20634329581582        1.26194561288705        0.08509671576374
N            2.40859706242079        0.06145090491754        0.01187949823297
C            2.75540025498175       -1.40961117639782        0.01115256796417
N            1.44924854698218       -1.91510875554909       -0.01252011897890
C            0.44126542859796       -1.01269154073513       -0.01120294422014
C            0.98367364365396        0.26118223287020        0.01428907114381
C            0.12099911865661        1.42497790097611        0.00384900083554
O            0.41160724272375        2.61409507282236        0.00602746259150
N           -1.28956354145259        1.08891758515688       -0.02277661922581
C           -2.29086849322923        2.15964132910832       -0.04097960922563
C           -1.81902840618714       -0.16642588843402       -0.04270218717413
O           -3.01387915422938       -0.37917525960994       -0.06825412159744
N           -0.91026843391801       -1.23862558287808       -0.03389163028473
C           -1.44001233166643       -2.58215283293987       -0.05557193368846
H            3.56248232205933        1.45403094519588        1.10005511436273
H            4.05384718658848        1.19902230199598       -0.59106179124678
H            2.59855169959841        2.12831076853345       -0.20125030872985
H            3.77354053690723       -2.58918479525989        0.03041138472138
H           -1.78805216325837        3.12195781828972       -0.01630239988974
H           -2.90892796687082        2.08667271134207       -0.93987900767329
H           -2.96002688308052        2.06737859082921        0.81857802349421
H           -1.13599321966574       -3.12228126132147        0.84217573643614
H           -1.09716488755504       -3.10921634550435       -0.94700534725816
H           -2.52789078267019       -2.50841119144605       -0.07865698384479
H            1.32833459273349       -2.90767054267704       -0.03442567636102
25
 energy: 67.278813375161 xtb: 6.6.1 (8d0f1dd)
C            3.19697206718841        1.27972918783773        0.08620758136236
N            2.40483219777866        0.07677374611986       -0.00377442742717
C            2.76405756470259       -1.40838971915722       -0.04097033881920
N            1.45993064257083       -1.89819004315282       -0.02491086753841
C            0.44135369187575       -1.00340838861595       -0.01094146363813
C            0.98059896943027        0.27343322706801        0.02056965840207
C            0.11629447073648        1.43935621788736        0.01561467811361
O            0.39159824232509        2.62409232837237        0.00969377006990
N           -1.29518613145748        1.09613725379740       -0.02021728231310
C           -2.29947342160412        2.16299637872436       -0.04212937292336
C           -1.82223172377674       -0.16476586565084       -0.04043564144525
O           -3.01429599188540       -0.37996931676412       -0.06814294615036
N           -0.90808973313256       -1.23184719406800       -0.02911459870177
C           -1.43690774431526       -2.57833116611135       -0.05273578740269
H            3.53755494600127        1.47161578207495        1.10074416019268
H            4.05086743224963        1.21597528389319       -0.57816277225021
H            2.59459632456784        2.14140379949014       -0.21138358317099
H            3.84945489334858       -2.78787013166850        0.07061053968409
H           -1.80112984012453        3.12680684872492       -0.01749814849143
H           -2.91608900576350        2.08635745535755       -0.94169573626364
H           -2.96836049818395        2.06824960468038        0.81742802080036
H           -1.13363432999276       -3.11743449910388        0.84513962116686
H           -1.09332404634782       -3.10392507187703       -0.94401104156408
H           -2.52527919671416       -2.50766798862345       -0.07677673322166
H            1.33810488845916       -2.89209912706307       -0.03607339232317
25
 energy: 69.735230223300 xtb: 6.6.1 (8d0f1dd)
C            3.18111526509601        1.30640251112188        0.08518898021474
N            2.38517243560093        0.10834265995168       -0.00639750641949
C            2.76861867995685       -1.38390248239215       -0.07553720601921
N            1.48027117332104       -1.86247014022589       -0.03072831771619
C            0.43758511409114       -0.98565245343511       -0.00674958453037
C            0.97030895857158        0.29327811804798        0.03035401463005
C            0.10361916590938        1.46222558033016        0.01948703444331
O            0.36312777527848        2.63152262906310        0.01108725587832
N           -1.30343345334947        1.10819400126513       -0.02023837244450
C           -2.31118352201453        2.16822304776142       -0.04186837657280
C           -1.82724572642440       -0.16449374795860       -0.03993631307064
O           -3.01458912571850       -0.38156778787880       -0.06834122777709
N           -0.90591873912636       -1.22260609260119       -0.02638728895070
C           -1.43222731886696       -2.57468800782363       -0.05198160150013
H            3.51040851091633        1.48982285372891        1.09593073699543
H            4.04088950801729        1.22831706616698       -0.56514778950007
H            2.59361962286297        2.16488145850688       -0.22503271184678
H            3.96716935952360       -3.10134435216346        0.09721508724728
H           -1.81692917023556        3.13261413798810       -0.01722699727014
H           -2.92584797644417        2.08584897672352       -0.94173013801204
H           -2.97748669849105        2.06755841747199        0.81874468859750
H           -1.12976292231058       -3.11206116260327        0.84593893071335
H           -1.08787272277227       -3.09840060479967       -0.94272059760308
H           -2.52145930455095       -2.50873454425221       -0.07693614338544
H            1.36426577909549       -2.86228147982171       -0.03995265995403
25
 energy: 61.973253772451 xtb: 6.6.1 (8d0f1dd)
C            3.16997816519934        1.32285483186734        0.07858017383564
N            2.31596526314627        0.16903119982878        0.01197925358566
C            2.71681038226940       -1.25858941099963       -0.06296273363929
N            1.50304279812077       -1.81059566919556       -0.02853984118466
C            0.41665604518967       -0.96595952775573       -0.00161523089404
C            0.94208474008914        0.30804066690942        0.03198765424360
C            0.07338928361498        1.48160982860006        0.00617288811407
O            0.35548528804081        2.62855632852858        0.01049252181364
N           -1.30564882223565        1.11177338154271       -0.02289166437902
C           -2.31376996405525        2.16790400495420       -0.03971657024438
C           -1.83456848270416       -0.17349579096721       -0.04152450705258
O           -3.01945494556909       -0.37968769131051       -0.06760036600344
N           -0.91423648547759       -1.22462975637170       -0.02924043665719
C           -1.43495301777071       -2.58175749929061       -0.05476249725931
H            3.51833879189382        1.47508013410102        1.09082774729813
H            4.02840136892165        1.20385735889972       -0.57397468388710
H            2.60467864198101        2.19286735283718       -0.22417723644602
H            4.14030649000160       -3.39736183287932        0.10360968592013
H           -1.81499340480806        3.13040947050627       -0.01543601662331
H           -2.92625017360457        2.08598497710038       -0.93921387834952
H           -2.97692552969127        2.06666249017020        0.82142667408771
H           -1.12857675011088       -3.11750573597249        0.84222261797243
H           -1.08914018587616       -3.10267267385389       -0.94594522042699
H           -2.52374998088665       -2.51646044403827       -0.07801914092907
H            1.40934515225787       -2.82688739103895       -0.04464529674778
25
 energy: 54.859951183038 xtb: 6.6.1 (8d0f1dd)
C            3.16750304027506        1.32518911159605        0.07626530785791
N            2.25955408577872        0.20723559974409        0.01653870236185
C            2.65742396323855       -1.10986973260782       -0.05336884415835
N            1.50381367109914       -1.78430921073010       -0.02418109861991
C            0.39383530108774       -0.95698608018155       -0.00060000947820
C            0.91717638601122        0.31080539409338        0.02842041219554
C            0.04056433732924        1.48374555824163        0.01033630808739
O            0.36162215350380        2.63977417344956        0.01145935235149
N           -1.30768554504225        1.10607418219532       -0.02239560211638
C           -2.31508184295954        2.16480613530078       -0.04263792647082
C           -1.84201345546368       -0.18189985751090       -0.04263874482097
O           -3.03136701463748       -0.37359204631639       -0.06962414789991
N           -0.93267050964388       -1.23138282163093       -0.03163019608753
C           -1.44335740675094       -2.58926842620634       -0.05570227629478
H            3.54811424777523        1.45303890375871        1.09370474352269
H            4.01341835128737        1.17523632991364       -0.59292962151633
H            2.61676451163934        2.21726659130958       -0.20533651118600
H            4.34213666294398       -3.58554435474144        0.09806248677202
H           -1.80863350523850        3.12636939198619       -0.01727097337156
H           -2.92565747460955        2.08886401513422       -0.94300301749056
H           -2.97774590567392        2.06938808166054        0.81817347273399
H           -1.13032161649891       -3.12482373480601        0.84022696729939
H           -1.09306176674433       -3.10891311494351       -0.94724565683822
H           -2.53062928292981       -2.52559807488852       -0.07783593267323
H            1.42851328215968       -2.80657741164815       -0.03975329801223
25
 energy: 54.133670366997 xtb: 6.6.1 (8d0f1dd)
C            3.16127169950644        1.33515020436358        0.07695334320440
N            2.24836408418683        0.22123733383619        0.02338470467481
C            2.65261910383018       -1.04269641324905       -0.02105682450581
N            1.49797578040959       -1.77439707946651       -0.01638064043646
C            0.38435745140381       -0.95194600449534        0.00128996751006
C            0.89153257808278        0.32407760582295        0.03175799594886
C            0.01319201552545        1.48529123667501        0.00702324501791
O            0.35058660790306        2.64814913491585        0.00649572270370
N           -1.32628027282238        1.10941267385725       -0.02442118285069
C           -2.32827720535206        2.17150232215067       -0.04435006220543
C           -1.85280652477533       -0.17999036212522       -0.04326086892667
O           -3.04542269357042       -0.36989556678904       -0.07097079850408
N           -0.94711286091113       -1.22994997217201       -0.03341522438438
C           -1.44944099833226       -2.58932802836835       -0.05752613855810
H            3.56159508033145        1.44188240720034        1.08747460503739
H            3.98890496367356        1.16294542411482       -0.60518379423312
H            2.62885741640334        2.24561478105931       -0.18864277740049
H            4.54610383288289       -3.76242488575218        0.07589654992803
H           -1.81001660799486        3.12747681329107       -0.01932609625286
H           -2.93534374472817        2.09691358087488       -0.94674544773071
H           -2.98730089045741        2.07813620602460        0.81907058864263
H           -1.13332635971734       -3.12701236302340        0.83703475727567
H           -1.09665807111304       -3.11038326153059       -0.94840085517007
H           -2.53707246020443       -2.53421924608718       -0.07952374145295
H            1.43591274377569       -2.78651793895562       -0.04014313118432
25
 energy: 53.810753102127 xtb: 6.6.1 (8d0f1dd)
C            3.15683516888184        1.33837508802341        0.08182541223254
N            2.24480496375950        0.22521407367915        0.02751341909491
C            2.65133173098072       -1.03345260920357       -0.00319911775045
N            1.48279847650672       -1.77752884852684       -0.01326953964479
C            0.38252050920818       -0.95145455744907       -0.00529821937975
C            0.87283059891610        0.33459517445153        0.02648492441749
C            0.00406255034670        1.48526829490613        0.00342353075802
O            0.34875379464636        2.65039012703472        0.00466522195090
N           -1.33772636507111        1.11141329263038       -0.02675197503006
C           -2.33402979289533        2.17540755195092       -0.04534412008585
C           -1.85660468295244       -0.17594383949993       -0.04566535299629
O           -3.05017664672556       -0.37021190185554       -0.07025413894942
N           -0.95165062845679       -1.22892454571977       -0.03667882678690
C           -1.45170958483754       -2.58825024314819       -0.05685347855014
H            3.56715050026466        1.43589651291621        1.08883240928164
H            3.97781186693321        1.16088826887811       -0.60924123408052
H            2.62815664388850        2.25345582486512       -0.17653387090914
H            4.65850792421999       -3.80904590240772        0.05258715802303
H           -1.80689240684425        3.12669570277723       -0.02020727517833
H           -2.93898333981691        2.10168170311850       -0.94860710983631
H           -2.99082312615703        2.08249145195809        0.81913014489845
H           -1.13373546891449       -3.12647486975911        0.83755728504206
H           -1.10051863777917       -3.11199238244671       -0.94739963896323
H           -2.53972953587073       -2.53619001741368       -0.07689270960287
H            1.42923015570514       -2.78327474758732       -0.03278900180769
25
 energy: 53.689203616312 xtb: 6.6.1 (8d0f1dd)
C            3.15758866207992        1.33346025520631        0.08317454541830
N            2.24170554482172        0.22396120988466        0.03152570889204
C            2.63923731199437       -1.03779231071798        0.01474410363971
N            1.45946998726125       -1.78345234893971       -0.01087182665748
C            0.37961254465477       -0.95201654976036       -0.00980991957533
C            0.85928947512175        0.34067235994441        0.02003887014274
C            0.00166007374598        1.48379153800535        0.00232882794971
O            0.35151019256229        2.65016738429300        0.00505854128495
N           -1.34486308236562        1.11146049146325       -0.02668507962873
C           -2.33709153017359        2.17644706786165       -0.04558857972457
C           -1.85946585374766       -0.17126165755466       -0.04482351159776
O           -3.05359059305511       -0.37071042199945       -0.06948891871517
N           -0.95505417457806       -1.22864849497937       -0.03696625766578
C           -1.45369342063940       -2.58755738911589       -0.05801361980437
H            3.57655693048022        1.42768422638538        1.08747955625970
H            3.97475231013575        1.15562413744051       -0.61574023069115
H            2.63035403775183        2.25062954732636       -0.17145573124808
H            4.74516407686845       -3.78419454582164        0.04141901457333
H           -1.80553947548144        3.12561217043070       -0.02066675371347
H           -2.94106162871376        2.10312022898917       -0.94910569068291
H           -2.99336431034847        2.08464366564941        0.81881233642109
H           -1.13547543418975       -3.12705080407489        0.83605993285471
H           -1.10125261530897       -3.11138645503143       -0.94868366344654
H           -2.54188046565979       -2.53725632304175       -0.07853901896427
H            1.41764610471958       -2.78691837967102       -0.02716873917337
25
 energy: 53.458309448867 xtb: 6.6.1 (8d0f1dd)
C            3.15779694208287        1.32797136956229        0.08484541280293
N            2.24386421747415        0.21696420664702        0.03289886145327
C            2.62851931582014       -1.05958696994063        0.02412779079444
N            1.44113771228787       -1.78858848048841       -0.00900247407257
C            0.37625566803609       -0.95279927216085       -0.01255242575078
C            0.85731748893141        0.34065366679262        0.01409745099574
C            0.00526599924653        1.48367157729743       -0.00001510164644
O            0.34942793027259        2.65146634037614        0.00479674263202
N           -1.34726685414297        1.11081965322400       -0.02746233008448
C           -2.33688594061174        2.17707737657369       -0.04515861320836
C           -1.86234654409469       -0.16764156623128       -0.04600637352827
O           -3.05608382324629       -0.37116693272906       -0.07015304645183
N           -0.95740351354023       -1.22799444619939       -0.03681765175102
C           -1.45571544629715       -2.58697258353365       -0.05759457060291
H            3.57494884997841        1.42579459061178        1.08888878198261
H            3.97604792397400        1.15656385979096       -0.61439457827194
H            2.62883618911948        2.24377067923466       -0.17075965596377
H            4.80060795030964       -3.74203002062161        0.03036956211159
H           -1.80460044170462        3.12576967200202       -0.01980100920561
H           -2.94142333026077        2.10569071655189       -0.94856711324524
H           -2.99344243951040        2.08625456821963        0.81918870264642
H           -1.13706899040033       -3.12572071187658        0.83686535917671
H           -1.10289408731637       -3.11118285314213       -0.94787191129615
H           -2.54378589445761       -2.53698678812832       -0.07803185053920
H            1.41110578598621       -2.79276904966020       -0.02485606282991
25
 energy: 53.237117613750 xtb: 6.6.1 (8d0f1dd)
C            3.15912970298196        1.32182209924332        0.08397250969403
N            2.24381673690897        0.21139924836485        0.03305910253798
C            2.61455002576237       -1.07049073940741        0.02435851784279
N            1.43215239608976       -1.78875050168924       -0.00805235215864
C            0.37010860953748       -0.95126122229346       -0.01225064816680
C            0.86084140226493        0.33769404402313        0.01364510286674
C            0.00878017943071        1.48400091554575        0.00160087023731
O            0.34989853030233        2.65105898170129        0.00616430206216
N           -1.34544007720665        1.11015056970717       -0.02619702293860
C           -2.33533413280142        2.17638514945050       -0.04545631434611
C           -1.86514334584861       -0.16623126770954       -0.04495263372894
O           -3.05842906192724       -0.36965791937647       -0.07004407048035
N           -0.96098322819880       -1.22739522178873       -0.03601452688393
C           -1.45674163687081       -2.58740611583277       -0.05827398238747
H            3.57677670875529        1.42188903806845        1.08767668658066
H            3.97709556607685        1.15303938428825       -0.61572389565119
H            2.62885297285159        2.23769789341878       -0.17094205616398
H            4.82301864577296       -3.70175984872945        0.03162824321239
H           -1.80482278839030        3.12604112442379       -0.02052788111308
H           -2.93986798029339        2.10398392136522       -0.94910563435036
H           -2.99290358439555        2.08577945019749        0.81839323953207
H           -1.13683138028000       -3.12600006676420        0.83579012989309
H           -1.10250758343598       -3.11010174836655       -0.94879777274774
H           -2.54453016556290       -2.53791781622867       -0.07868533465900
H            1.41072815641271       -2.79494074943947       -0.02423068253576
25
 energy: 53.134285813053 xtb: 6.6.1 (8d0f1dd)
C            3.15862762062906        1.32158692716584        0.08347436237245
N            2.24595304959503        0.20859152207118        0.03228826930922
C            2.61103176371469       -1.08088555129642        0.02214580194705
N            1.43269015228327       -1.78737046492099       -0.00850360761876
C            0.36692344652592       -0.94924959991846       -0.01156225072120
C            0.86617281084110        0.33595229357583        0.01458215111990
C            0.01104567577078        1.48500388410010        0.00030587773172
O            0.34677507140860        2.65208134452175        0.00504999223712
N           -1.34361862172589        1.10993481831691       -0.02673203598683
C           -2.33447998219674        2.17633222100201       -0.04463371248408
C           -1.86651684096100       -0.16681042759441       -0.04569465589514
O           -3.05930756338089       -0.36923143825926       -0.07030578150889
N           -0.96255534573258       -1.22665728302351       -0.03636110585914
C           -1.45708663761450       -2.58739636940139       -0.05809624017599
H            3.57214558564584        1.42523589111607        1.08815052602501
H            3.97877704981182        1.15415455424899       -0.61281435454673
H            2.62807603219794        2.23675364707122       -0.17446318159840
H            4.82722202538155       -3.69811898266395        0.03531173571623
H           -1.80563906253973        3.12665342680449       -0.01946444296420
H           -2.94015934452913        2.10449487971869       -0.94775041611132
H           -2.99182768754174        2.08516611301996        0.81958049226528
H           -1.13722243511875       -3.12508712118147        0.83633899147663
H           -1.10254080363315       -3.11003470876851       -0.94828054533747
H           -2.54475683217715       -2.53782443718609       -0.07875412769212
H            1.41248554128194       -2.79424653634652       -0.02677784555307
25
 energy: 53.127878018410 xtb: 6.6.1 (8d0f1dd)
C            3.15864047752552        1.32164193624150        0.08348740269675
N            2.24505215863801        0.20945857475122        0.03158792378406
C            2.60861883296937       -1.07884326075261        0.01768559248072
N            1.43411762127874       -1.78605427050876       -0.00927289017570
C            0.36533086508415       -0.94795127465788       -0.01087947881424
C            0.86704314720330        0.33577448380754        0.01621760138954
C            0.01039048130596        1.48489339748883        0.00160681447190
O            0.34737643127933        2.65156296921035        0.00562488920786
N           -1.34279352829486        1.10978469159277       -0.02635563733950
C           -2.33405736131200        2.17617636391571       -0.04536500094465
C           -1.86672099555634       -0.16769990216885       -0.04522695705311
O           -3.05965881886602       -0.36864053996878       -0.07018754405471
N           -0.96346721274414       -1.22682523084552       -0.03609244216370
C           -1.45693106415066       -2.58779695352677       -0.05775131994044
H            3.57362539658696        1.42338883925394        1.08799668172337
H            3.97799199259055        1.15413243394805       -0.61368114268410
H            2.62797118888866        2.23727196406689       -0.17226186096167
H            4.82683923936381       -3.69922990568193        0.03728236729325
H           -1.80518487782378        3.12647935708366       -0.02027896653457
H           -2.93904879892156        2.10365633873924       -0.94885307629670
H           -2.99179865197770        2.08504924081248        0.81852272169506
H           -1.13661067266993       -3.12553661693731        0.83648853837228
H           -1.10240174561518       -3.11017507967284       -0.94810209693771
H           -2.54460315598810       -2.53838254602545       -0.07813361373587
H            1.41249371914215       -2.79310640799346       -0.02702460933082
25
 energy: 53.132050769747 xtb: 6.6.1 (8d0f1dd)
C            3.15867971837360        1.32218246704100        0.08301855863629
N            2.24507264991235        0.21023798641161        0.03139441237930
C            2.60894463422981       -1.07835244742727        0.01682359893557
N            1.43508567746955       -1.78581958185488       -0.00939170384499
C            0.36533319026025       -0.94749012255590       -0.01037499654882
C            0.86697368086424        0.33617620262296        0.01698714749288
C            0.00964305162040        1.48490048997276        0.00147373902319
O            0.34733616760354        2.65166192028162        0.00535927555787
N           -1.34288064081838        1.10991855446804       -0.02646960559793
C           -2.33442569293294        2.17621669403130       -0.04501003653222
C           -1.86652904544273       -0.16813393150743       -0.04530675073892
O           -3.05963175912379       -0.36847409292295       -0.07023818354223
N           -0.96346177590635       -1.22689016046046       -0.03621532661369
C           -1.45683671788812       -2.58773745853560       -0.05810076465466
H            3.57340033182119        1.42419349925739        1.08777997545290
H            3.97828032257636        1.15350759299312       -0.61381138088329
H            2.62831051258907        2.23780387326326       -0.17371612735798
H            4.82771140892900       -3.70315050488883        0.04006127878029
H           -1.80553625201080        3.12650808621489       -0.01991589885681
H           -2.93962592975305        2.10371202569658       -0.94829489354144
H           -2.99178225818882        2.08478853584449        0.81910104191222
H           -1.13678596189636       -3.12565643412717        0.83610603916371
H           -1.10226462750068       -3.11006451361057       -0.94850075634205
H           -2.54455555131696       -2.53831080618900       -0.07870948559154
H            1.41175953446586       -2.79269927184697       -0.02701526054037
25
 energy: 53.135729837458 xtb: 6.6.1 (8d0f1dd)
C            3.15847924969079        1.32248399103317        0.08345246991805
N            2.24499278148349        0.21073781063529        0.03113641332066
C            2.60924056013757       -1.07823562671427        0.01484952086926
N            1.43541361177488       -1.78606065015010       -0.01023121260341
C            0.36560015861006       -0.94749115704237       -0.01008154943240
C            0.86644593822905        0.33638312207459        0.01752713847587
C            0.00892744872823        1.48472538031415        0.00165806342452
O            0.34762872183667        2.65153975307358        0.00527925969799
N           -1.34309011116045        1.11002592177637       -0.02659365058723
C           -2.33450589245147        2.17637143443069       -0.04536692546278
C           -1.86629297126057       -0.16841272559566       -0.04531079004677
O           -3.05959979195407       -0.36831520650962       -0.07022186870149
N           -0.96337585309847       -1.22707970551315       -0.03607066567222
C           -1.45686075551787       -2.58775304948610       -0.05761136414944
H            3.57335230989856        1.42387291044445        1.08814993671669
H            3.97799145743412        1.15429872290464       -0.61354165244573
H            2.62814596814242        2.23811606596223       -0.17253484888627
H            4.82942223566965       -3.70447285835898        0.04018149803632
H           -1.80520023560326        3.12643182401797       -0.02025659685597
H           -2.93944518368399        2.10386707403273       -0.94876594780533
H           -2.99190451581554        2.08510007764836        0.81867049312059
H           -1.13676697691328       -3.12557905254698        0.83666657860636
H           -1.10251812503423       -3.11037926974416       -0.94795597146134
H           -2.54462656243934       -2.53836226322471       -0.07807100277829
H            1.41076120123331       -2.79278392129011       -0.02792342915036
