25
 energy: -41.992992316186 gnorm: 0.004955417522 xtb: 6.6.1 (8d0f1dd)
C            3.04582047839404        1.63451249216002       -0.17389083557707
N            2.37373589187131        0.43091723561173       -0.46027031312113
C            1.70063938545416       -2.66026852959914        1.54554002158997
N            0.63804053867220       -2.09541113787584        1.11828336227210
C            0.43789328855017       -1.03706159015652        0.14960885062929
C            1.38892595137805       -0.16604294314389       -0.13602770698672
C           -0.76030598893936        2.20400096740940       -0.95777714093549
O           -0.39433130166545        2.95186488912176       -1.74653618968572
N           -1.08641635625473        1.28022740907067       -0.18292374743970
C           -1.45127513819790        1.45580794560226        1.22642839074069
C           -1.60865928172906       -0.07007183363728       -0.79927544804676
O           -2.62717819428157       -0.01965238495142       -1.40316905235166
N           -0.81205480120440       -1.08961350224535       -0.52357943136198
C           -1.22286847641387       -2.39564534322573       -1.04672990130897
H            2.55894941295119        2.24488433750625        0.59004252804580
H            4.05461577241174        1.37318647410927        0.14880965787374
H            3.13902955418041        2.19457767442042       -1.10533080245652
H            2.64611108264377       -2.29644386911349        1.13907453681835
H           -1.17856058030013        2.45226751443267        1.56430398532183
H           -2.52684673671802        1.31758983569041        1.33921884762717
H           -0.92009218461628        0.71231994878425        1.81793627095674
H           -1.76769408050355       -2.96668436363606       -0.29380981302668
H           -0.34016403449157       -2.95012904632427       -1.35948919892404
H           -1.87792192081734       -2.24462340596645       -1.90246266890596
H           -0.24896076623283       -2.44227023244784        1.48319741618824
