25
 energy: -42.078490829506 gnorm: 0.007024051545 xtb: 6.6.1 (8d0f1dd)
C            2.65050323751622        0.87284260993808       -1.02546491569329
N            1.99132272495562       -0.12747279138786       -0.21446990303751
C            2.70964276404045       -1.06892761240508        0.45781928147637
N            2.31421680760512       -1.95059880256764        1.26248014899060
C           -0.18228261081155       -1.11574750667474       -0.18882423794646
C            0.58442378518403       -0.01127129745387       -0.05943531828512
C            0.10063131966799        1.27500117082030        0.30426647727859
O            0.69016980270927        2.24905833744621        0.65770276979788
N           -1.42740893103599        1.42788757775422        0.19382520729837
C           -1.94535463215242        2.65709510467922        0.81001779859748
C           -2.12230283915163        0.70447310445567       -0.55295096875277
O           -2.69056363965040       -0.01247371795160       -1.25481124212655
N           -0.78092739137653       -2.09088544974200       -0.47949853124865
C           -1.40787894924618       -3.30792437125576       -0.23705608596973
H            2.79956264105249        1.79919379694705       -0.46431660987413
H            3.61816946775791        0.49691390064843       -1.34893031917886
H            2.04387151279811        1.09131276124773       -1.90466032835664
H            3.77407093666565       -1.04147062724012        0.24406460999957
H           -1.32481498822298        2.87626098959767        1.67726584658284
H           -1.86997092060475        3.48706161168652        0.10743234032252
H           -2.98040563466616        2.51614715361439        1.10895960738610
H           -1.40898677613782       -3.57343401028855        0.82266374634462
H           -0.88416094317572       -4.07710170158238       -0.80845815114440
H           -2.43149587551221       -3.24707699876773       -0.61235684634405
H            1.34040064589697       -2.01062468991683        1.53590724178867
