25
 energy: 55.963706672133 xtb: 6.6.1 (8d0f1dd)
C            3.62295367186511        0.85984456713050        0.12579558092647
N            2.61587055130177       -0.16837614014247        0.04280079765811
C            2.86262216938880       -1.47611820212523       -0.02661994792909
N            1.67550697815265       -2.13582270278046       -0.05713340660810
C            0.66216233404335       -1.20486759133512       -0.00098333850382
C            1.27050632779143        0.04763431926664        0.05402506804280
C            0.43145863773234        1.28498983410969        0.09089914310181
O            0.92683788058990        2.39970320242122        0.11867256224245
N           -0.87398681058461        1.03853072892763        0.08105259917269
C           -3.84321232635649        2.97722707181415       -0.17763773292846
C           -1.53946762696168       -0.06252598064384        0.04229353229771
O           -2.71028665337541       -0.30577597601969        0.03824841847545
N           -0.64299229027288       -1.37789599416949       -0.00447127656990
C           -1.27825757337953       -2.65981827202891       -0.03496818282451
H            4.01754454920106        0.88011332685803        1.14206525173912
H            4.42808295841104        0.59517651506033       -0.55963897303404
H            3.21730922307876        1.84059655861154       -0.12549280254955
H            3.82355654896771       -1.94372665309120       -0.06455409098104
H           -3.20467496986279        3.82415291536635       -0.16184633413894
H           -4.19050376897424        2.61519766689840       -1.11736376051553
H           -4.31316399265193        2.67064055307139        0.72809601150369
H           -0.98598234017476       -3.25545769236086        0.83506963203705
H           -1.03431588512969       -3.19783909914009       -0.95614259888987
H           -2.35332667761909       -2.47189122440190       -0.00176056314964
H            1.53507784353137       -3.12992323329932       -0.11021535752696
