25
 energy: 55.817491278402 xtb: 6.6.1 (8d0f1dd)
C            3.46123190110040        1.03403156916809        0.11387235664914
N            2.46882273512124        0.00563309528912        0.01225380867365
C            2.72269667492919       -1.32325289691575       -0.00336405374713
N            1.53621077412465       -1.99952929933589       -0.05131153941036
C            0.53115859701775       -1.06849220127921       -0.01992225637655
C            1.09370351265255        0.19439080762874        0.02493306295854
C            0.22715448508572        1.41150469126675        0.05242967350970
O            0.72152446140014        2.52604520112235        0.12794372629568
N           -1.15511856074552        1.16857036271034        0.00916620489140
C           -3.05919025281501        2.45864813240247       -0.14334955306353
C           -1.70440584772799       -0.04255582998124        0.01503201535225
O           -2.87137026751825       -0.35738236753519        0.04444938308842
N           -0.78994735387664       -1.23515275349314       -0.00875819727311
C           -1.34665688553076       -2.57280835370313       -0.02550713764683
H            3.90092485170198        1.06406075758332        1.11265632661683
H            4.25422768271557        0.83345226408770       -0.60944895086983
H            3.01609053519145        2.00177775084842       -0.07697211331889
H            3.66559046560726       -1.80842916915129       -0.10378919014407
H           -2.49073606308168        3.36442623979249       -0.14024989898436
H           -3.54553002966795        2.18324171766820       -1.05230289817779
H           -3.63237247782139        2.22453748361750        0.72218679434463
H           -0.99493845419524       -3.14318955134026        0.83882876254204
H           -1.03791362664182       -3.08735632038993       -0.93853605454230
H           -2.43542056071878       -2.51568688081541        0.00334691462679
H            1.46121095970559       -3.00202365892568       -0.09763154998365
