25
 energy: 57.136581956208 xtb: 6.6.1 (8d0f1dd)
C            3.50322635109335        0.99502658242387        0.11901892491096
N            2.50429263716812       -0.03145604948094        0.01018789882030
C            2.75276735741465       -1.34691657547647       -0.03742636074630
N            1.57617037424668       -2.02750194502066       -0.05621337409086
C            0.56474812816669       -1.09677054732474       -0.00907860130859
C            1.14189142757245        0.16331330160376        0.03336903485299
C            0.28095098857925        1.38959282289562        0.06498562980221
O            0.78750236977116        2.49842511960737        0.13770049737438
N           -1.07427551350933        1.14763785396939        0.02344395370542
C           -3.26642505319807        2.55835845929901       -0.15067081820262
C           -1.65970380421680       -0.02763942442653        0.02255235262321
O           -2.82432956044769       -0.34122239542031        0.04895139201334
N           -0.74744452944763       -1.25776135372810       -0.00771164257608
C           -1.32030746333600       -2.57707064605753       -0.02284184938491
H            3.92703597140626        1.02153195385081        1.12417709422779
H            4.30283434306464        0.78015240384565       -0.59068135021410
H            3.08402988238517        1.97311939397935       -0.08070599932569
H            3.70737844454573       -1.81155619277446       -0.11551487767794
H           -2.66280981644742        3.43014604835579       -0.14658100646936
H           -3.70813357046245        2.25596875569436       -1.06702151109183
H           -3.80438395248771        2.29768805035487        0.72472267166989
H           -0.96139133217077       -3.13478809753496        0.84419613202457
H           -1.02038018676816       -3.09348099085070       -0.93898003384028
H           -2.40900662090447       -2.51310318105516        0.01913896129892
H            1.50233737304239       -3.03143241398257       -0.09537895149738
