25
 energy: -5.593790139505 xtb: 6.6.1 (8d0f1dd)
C            3.26684827137801        1.16206245925278        0.08932061091759
N            2.31740513582703        0.10086578914943        0.03388593075265
C            2.60855448318379       -1.24691847655496        0.02868454125941
N            1.42240160938537       -1.94178189879982       -0.00635535000666
C            0.40951827955867       -1.05321008630833       -0.00742837791525
C            0.92789424458434        0.23573655368619        0.01968406124494
C            0.11446915728530        1.39618538510420        0.00573360972060
O            0.50415127478083        2.56842620585132        0.00698488580772
N           -1.29323873983845        1.07687299140814       -0.02367035086771
C           -2.28590119452169        2.16041194463041       -0.05820374326018
C           -1.81698236790323       -0.18079876112371       -0.03651085983643
O           -3.01351320016153       -0.38970681120134       -0.05751079636532
N           -0.93037807957858       -1.28294831858602       -0.02924625555357
C           -1.45810181090136       -2.63081129296071       -0.05664798635562
H            3.74117048488744        1.20708546608909        1.07395341438728
H            4.03996350830996        1.01834450016695       -0.66954372181483
H            2.73485375935381        2.09220649033926       -0.09003049521259
H            3.58425546027255       -1.66667763604287        0.03697159042929
H           -1.75151611100955        3.10942082349352       -0.03595561203468
H           -2.89737305194468        2.10445582302526       -0.95931268913756
H           -2.95345628730536        2.09660870807085        0.80100701232132
H           -1.14917730223362       -3.18937072002718        0.83116941417617
H           -1.12972421937817       -3.16497594558418       -0.95279515115847
H           -2.54388123441140       -2.54812019549951       -0.06823767267806
H            1.35721904369926       -2.94648386874484       -0.02544052447054
