25
 energy: 56.777609396864 xtb: 6.6.1 (8d0f1dd)
C            3.48316598348114        1.01436205098467        0.11676285035139
N            2.48629493622664       -0.01235270376354        0.01191916260523
C            2.73659014662378       -1.33322021590266       -0.01901894195678
N            1.55678477277831       -2.01277104083185       -0.05319409679215
C            0.54784531710542       -1.08222166250565       -0.01479417167056
C            1.11836690847303        0.17943592344115        0.02911206539196
C            0.25276130500693        1.40135483314228        0.05851113215368
O            0.75323747238434        2.51302487329594        0.13341535680429
N           -1.11307840953784        1.15784676815194        0.01609556516519
C           -3.16709050817379        2.50950606195230       -0.14729378978143
C           -1.68163643984062       -0.03420163949692        0.01902996979694
O           -2.84679964426803       -0.35062064037539        0.04638778576835
N           -0.76801441292933       -1.24565124841153       -0.00651192907889
C           -1.33379111114686       -2.57299965001006       -0.02185261402395
H            3.91606016654046        1.04240211485461        1.11813521784978
H            4.27862831439973        0.80560497958638       -0.60035559131805
H            3.05172615869937        1.98772953494040       -0.07781757143818
H            3.68478332504205       -1.80308720521659       -0.11557602072481
H           -2.57995024458009        3.39747217736960       -0.14542240208085
H           -3.62839402294758        2.21618974078846       -1.05963305580096
H           -3.71973974971351        2.25715623414194        0.72346713173105
H           -0.97760204911892       -3.13891693779376        0.84223904998022
H           -1.02661321419651       -3.08169147671090       -0.93786320903910
H           -2.42287006095883       -2.51438527075587        0.01246082040420
H            1.48286130181829       -3.01596602020574       -0.09525136468753
