25
 energy: 57.204206880773 xtb: 6.6.1 (8d0f1dd)
C            3.52298819171090        0.97436763012790        0.12378077160990
N            2.52235897505604       -0.05149594788735        0.01227428148567
C            2.76949497212567       -1.36412377919403       -0.04849131490132
N            1.59393375470116       -2.04368652879184       -0.05750857515002
C            0.58233161907970       -1.11200267876542       -0.00546786103867
C            1.16415862505389        0.14695487373277        0.03627506209584
C            0.30955110784703        1.37687863320712        0.06606082836724
O            0.81990943163775        2.48355903286508        0.13958994837755
N           -1.03965243620699        1.13699711616570        0.03063086415021
C           -3.36068026311298        2.61193891905922       -0.15399516549928
C           -1.63898351040737       -0.02349823703110        0.02408386294999
O           -2.80300467868474       -0.33389284182600        0.05032623477891
N           -0.72678059363109       -1.27200553019587       -0.00872666991084
C           -1.30709097513704       -2.58507826361258       -0.02579591058350
H            3.94060118114250        0.99863295345495        1.13140325822563
H            4.32389023055246        0.75116295183015       -0.58133653738962
H            3.11682051210926        1.95711164937966       -0.08089089932581
H            3.72603350376213       -1.82888251675422       -0.10787300540801
H           -2.74638739982433        3.47255221453547       -0.14514419127744
H           -3.78360580594896        2.29716271638974       -1.07418259107826
H           -3.88430794870207        2.33919364215533        0.72592879067700
H           -0.94846579515865       -3.14643848217485        0.83915596345408
H           -1.02028761481106       -3.10614334223562       -0.94433258092681
H           -2.39463459290254       -2.50891479797901        0.02094732649101
H            1.51915777368666       -3.04800138933901       -0.09606788571208
