25
 energy: 54.750983142254 xtb: 6.6.1 (8d0f1dd)
C            3.61466381812995        0.86696926573531        0.11318331073085
N            2.60736648106437       -0.15857989090361        0.04222038632998
C            2.84678386337029       -1.46112441462107       -0.02795008443339
N            1.66729880918908       -2.13404365602028       -0.05499869584004
C            0.64504436859754       -1.20838036399303        0.00167492035825
C            1.25623270624049        0.04413785068933        0.06133151667879
C            0.43784503539523        1.27514274363377        0.09204624619313
O            0.93815267733333        2.38909013965865        0.11080930924008
N           -0.87687612884074        1.02884098885154        0.08038144322062
C           -3.91088536088949        3.11648290713114       -0.18491131893364
C           -1.53933592600208       -0.07805816530999        0.03460626195163
O           -2.71605116466597       -0.30707192795602        0.02410825973225
N           -0.65695107278130       -1.40116374586935       -0.00197572136035
C           -1.28333434423844       -2.68758154916519       -0.03351463205851
H            4.01663752346130        0.91536538808756        1.12590555811670
H            4.42512868962669        0.64949875466278       -0.58062594094120
H            3.15688695866490        1.82661408427522       -0.12582658214643
H            3.81492174391220       -1.92270289918785       -0.06669242322138
H           -3.19266746367228        3.90088151748223       -0.15977962059237
H           -4.17883327727787        2.67515795819295       -1.11993040513957
H           -4.32360945704333        2.74988940065193        0.72790892532397
H           -0.99892836647316       -3.28832988032512        0.83664921857355
H           -1.03901692567121       -3.22692016166810       -0.95354848560577
H           -2.35862625734277       -2.50120581827265       -0.00309237715747
H            1.56718204847093       -3.13585411606866       -0.11826290737773
