25
 energy: 57.023898570040 xtb: 6.6.1 (8d0f1dd)
C            3.56146911635562        0.93193079459662        0.12878997905393
N            2.55475293047411       -0.09230455294461        0.01871784932215
C            2.80006801898574       -1.40238022507723       -0.05233327840321
N            1.62293112977819       -2.08027688361808       -0.05857398505555
C            0.61209686610548       -1.14663605048984       -0.00435171085177
C            1.20333949300304        0.11174278821505        0.03767878863048
C            0.36348420528176        1.34706936269916        0.07445874588056
O            0.88074149553833        2.45009017277179        0.14149516758284
N           -0.97407002587220        1.11598405324512        0.04740730883504
C           -3.53437527700106        2.71677038771157       -0.16037695657761
C           -1.59983657891021       -0.01740506211813        0.03165071019918
O           -2.76310925899327       -0.31801971083101        0.05146450913209
N           -0.69210016608920       -1.30486659742715       -0.00945701632243
C           -1.29243375989683       -2.60689208787221       -0.03036133744575
H            3.96415178805952        0.95400112150866        1.14241878914390
H            4.36425647651678        0.68876425518308       -0.56632444635576
H            3.18351550004504        1.92359763995881       -0.09393231290661
H            3.75386459407572       -1.87251949504658       -0.07921103986836
H           -2.91457215653961        3.56845257313828       -0.14989971303451
H           -3.92741647458361        2.38781250874282       -1.08751322140413
H           -4.03722718642748        2.43503756892011        0.72742949909747
H           -0.95801232768587       -3.18339560504515        0.83518508541735
H           -1.02490411318558       -3.13482100945227       -0.95097433694906
H           -2.37582848717424       -2.49407720229160        0.01494866458345
H            1.53306542357140       -3.08658394292417       -0.09449990326926
