25
 energy: 54.190402917233 xtb: 6.6.1 (8d0f1dd)
C            3.57391884971636        0.89278968533497        0.11042096551359
N            2.60373276283920       -0.16663669484569        0.04083177636301
C            2.85537747497999       -1.46417772048734       -0.02491456358053
N            1.68350470757577       -2.14618062834168       -0.04894379365919
C            0.65742097285522       -1.22984920904638        0.00639749702391
C            1.25462088220194        0.02337840304865        0.06660726491556
C            0.43141114831014        1.25484577270579        0.08773658214792
O            0.94580664479904        2.36320461716552        0.10540160306764
N           -0.88687486196811        1.01469163294133        0.07043414087299
C           -3.89418650569505        3.14820155179504       -0.17591199314717
C           -1.51674426200797       -0.12304634185636        0.03489664772050
O           -2.69543860270564       -0.35310210892507        0.01907096139553
N           -0.64690670432501       -1.41735404700184        0.00444703637374
C           -1.28558654587368       -2.70538301185554       -0.03629156501350
H            3.98652443621263        0.95715159383442        1.11653813178105
H            4.37564386279040        0.71106053204906       -0.59945107430055
H            3.07532536494445        1.83674983362939       -0.11210963297963
H            3.82454565359437       -1.91493995528717       -0.06567355373127
H           -3.11022041105281        3.86563590369401       -0.14546103851842
H           -4.18502806276766        2.72653650744314       -1.11113349230966
H           -4.30194526744090        2.77410244710478        0.73581945999409
H           -1.01336200948247       -3.31133530654976        0.83267838171529
H           -1.03987963144172       -3.24650515997040       -0.95449700013539
H           -2.36019606003552       -2.50697281785897       -0.01350197477189
H            1.58882802939549       -3.14706857374300       -0.10597247288019
