  25
        -42.15143523
 C          2.7711600042        0.8528290753        0.6307740781
 N          2.0931434049       -0.1258436642        0.0898131284
 C          2.7852954885       -1.1691680728       -0.5673020532
 N          4.0081054654       -1.3053294450       -0.3424073847
 C         -0.0585831308       -1.2700144103        0.1573762810
 C          0.6880572695       -0.1298260256        0.0696854225
 C          0.0123745397        1.1708581459       -0.0719489089
 O          0.6076582264        2.2186194439       -0.1937447802
 N         -1.3653836359        1.0982121118       -0.0754825608
 C         -2.1205179546        2.3387647942       -0.1646471097
 C         -2.1238955077       -0.0503128882        0.0450266724
 O         -3.3230210826       -0.0311729372        0.0692113158
 N         -1.3999110193       -1.2496459930        0.1367433409
 C         -2.1587943641       -2.4778902872        0.2671959038
 H          3.8442513792        0.8427990564        0.5151464561
 H          4.5284179813       -2.0372298888       -0.8089541196
 H          2.2835807947        1.6436148322        1.1729343025
 H          2.1482249622       -1.7590841517       -1.2323536290
 H         -1.4221455228        3.1564668694       -0.3289813569
 H         -2.8357487990        2.2760781665       -0.9844794061
 H         -2.6754285167        2.4975604534        0.7610924403
 H         -1.9305699270       -2.9685135769        1.2139423344
 H         -1.9325562423       -3.1557052277       -0.5561351006
 H         -3.2185670353       -2.2253498027        0.2426479100
 H          0.3965177975       -2.2448104676        0.2775351921
