  25
        -42.10257463
 C          3.2116543815        0.9953514073        0.2531443456
 N          1.8673703940        0.4950558388       -0.0230159830
 C          1.8098161799       -0.6155931949       -0.7931656115
 N          0.9008153971       -1.5853873494       -0.7836827960
 C         -0.2565878641       -1.7486202350       -0.0732306487
 C          0.8206037367        1.1942410348        0.5742556384
 C         -0.5450293246        1.0863165138       -0.0608144775
 O          1.0052316573        1.9662724998        1.4817890237
 N         -0.8096799885        1.7572870238       -1.0709887679
 C         -2.0834966060        1.8919294747       -1.6850645684
 C         -1.2525864416       -0.9841780872        0.5059093117
 O         -1.4936154387        0.3052090665        0.6606642380
 N         -2.0779502134       -2.0316566690        0.7563654074
 C         -1.1032504116       -2.9793872482        0.2084983475
 H          3.7756422872        0.2749203386        0.8446409367
 H          3.7358638613        1.1934234737       -0.6814962712
 H          3.1207651047        1.9209805229        0.8186440204
 H          2.6853849515       -0.7999604585       -1.4017406311
 H         -2.3888446710        2.9318820894       -1.5636535695
 H         -1.9521587087        1.7151426133       -2.7516086372
 H         -2.8522754343        1.2331113769       -1.2735065206
 H         -0.6989123914       -3.6790009736        0.9405450994
 H         -1.4858296423       -3.5131583824       -0.6593049848
 H         -2.8220572107       -2.1570185785        1.4190029186
 H          1.1314973868       -2.3900105127       -1.3613461652
