  72
        -99.29259781
 N         -1.7418615694        2.6904555221        2.5035540442
 C         -1.7539119843        2.0766264138        1.4164556080
 C         -2.9278628311        2.0226435057        0.4773047223
 C         -3.4826759092        0.6071539166        0.4422929059
 C         -4.4411858617        0.2621713744       -0.5128799175
 C         -4.9745043336       -1.0146125868       -0.5755256650
 O         -5.9049142579       -1.4274764464       -1.4594473038
 C         -6.4804138967       -0.4937001931       -2.3429738702
 C         -4.5298797182       -2.0048137104        0.3431044722
 O         -5.0840866372       -3.2237754664        0.1952961057
 C         -4.7309923953       -4.2513597938        1.0916957706
 C         -3.5881565523       -1.6517234456        1.2966509767
 C         -3.0748092184       -0.3615645525        1.3463252735
 C         -2.3767480183        2.4114604113       -0.9205541222
 C         -1.5585240218        1.3096846187       -1.6193200368
 C         -0.2314768742        1.0851829782       -1.0078385352
 N          0.3040197486       -0.0939972549       -0.7273531937
 C          1.6832813195       -0.1865574518       -0.3126910002
 C          2.5994700481       -0.6678858146       -1.4579880895
 C          4.0324824795       -0.4311503932       -1.0826508024
 C          4.6058657710        0.8274403229       -1.2993068648
 C          5.8905194770        1.0998054773       -0.9200217018
 C          6.7213619898        0.1202812977       -0.2813134442
 O          7.8833737424        0.3446426287        0.0782241429
 C         11.4998226740        1.2146327726        1.1996929099
 C          6.0950243719       -1.1954194923       -0.0759476379
 O          6.9053286141       -2.0823422679        0.5086625296
 C          6.4665902632       -3.3985389768        0.7455369676
 C          4.7887478977       -1.4260407824       -0.4688654775
 C         -0.4157740572       -1.3322863063       -0.9093049902
 C         -4.0780642736        2.9933665245        0.8788244212
 C         -4.7172699471        2.5847818756        2.2036172877
 C         -3.6339480300        4.4518139028        0.9474693650
 H         -4.7834628105        1.0084285510       -1.2103609287
 H         -6.9641133128        0.3246347721       -1.8013556029
 H         -7.2307886182       -1.0472471568       -2.9037864687
 H         -5.7391772049       -0.0866145471       -3.0383691853
 H         -4.9879571356       -3.9906936925        2.1225572372
 H         -5.3108642596       -5.1190980490        0.7838416474
 H         -3.6639516082       -4.4883704143        1.0295563806
 H         -3.2515766056       -2.3740593687        2.0223270514
 H         -2.3645844102       -0.1180591129        2.1210532780
 H         -3.2143676421        2.6691848113       -1.5672703141
 H         -1.7560639692        3.3020736508       -0.8165632874
 H         -2.1414685022        0.3919300738       -1.6688641767
 H         -1.3886675100        1.6531442446       -2.6478830157
 H         -0.8802961862        1.5335711652        1.0068169834
 H          0.4108582452        1.9465071628       -0.8912801035
 H          1.7605511493       -0.8754370372        0.5327106166
 H          2.0240126226        0.7973120024        0.0165808126
 H          2.3568164980       -0.0974098336       -2.3571899803
 H          2.4220165426       -1.7247794932       -1.6588075780
 H          4.0221115839        1.5965658609       -1.7860318096
 H          6.3292872382        2.0697741218       -1.0931282746
 H         11.0803428956        1.9650613869        1.8353439586
 H         11.6790610257        1.4208605559        0.1659748426
 H         11.6982416148        0.2388693268        1.5893512402
 H          7.3085953222       -3.9090461720        1.2090282014
 H          5.6105068034       -3.4186203320        1.4275049379
 H          6.2030888617       -3.9054678665       -0.1877372624
 H          4.3443989444       -2.3978999198       -0.3089870565
 H         -0.5544514670       -1.5555132232       -1.9699345038
 H         -1.3948308617       -1.2794322337       -0.4276569207
 H          0.1482358270       -2.1437861309       -0.4555804265
 H         -4.8418285106        2.9087076494        0.0972236145
 H         -3.9937802627        2.6698161081        3.0080641408
 H         -5.0840129003        1.5618859309        2.1645261351
 H         -5.5555998761        3.2411531730        2.4210776591
 H         -2.8622984627        4.5760659163        1.7009946817
 H         -3.2623051641        4.8094977482       -0.0090763610
 H         -4.4828059293        5.0702480104        1.2268265548
 H         -0.8849539609        2.6825418734        3.0474930401
