72
 energy: -99.290137882035 gnorm: 0.007921415259 xtb: 6.6.1 (8d0f1dd)
N           -1.43804005250556        2.60473860841033        1.89896170606445
C           -1.64720254884128        1.81416127468588        0.95428793787093
C           -2.93659168443037        1.71090404316115        0.18836473127558
C           -3.50358212662650        0.30954820057870        0.35875021482151
C           -4.53088049264073       -0.14006090776166       -0.47268356506361
C           -5.11220211685719       -1.38478895507673       -0.29506622311830
O           -6.10599943278478       -1.89724791200424       -1.05100923545567
C           -6.66604469151670       -1.11478963994921       -2.07901631228221
C           -4.66303339156353       -2.22382619878576        0.76002237201244
O           -5.30201691458024       -3.40552512416740        0.87535129821413
C           -5.00027144133281       -4.24152190879150        1.96806381243159
C           -3.63678283846674       -1.77494509549523        1.57549032718456
C           -3.06598144811993       -0.52542888335215        1.37529711927558
C           -2.57733153471427        1.98354305176682       -1.29561224633742
C           -1.79554866365313        0.85302175915310       -1.98958906995640
C           -0.39473094753534        0.76038774051428       -1.52570414666538
N            0.26177083558932       -0.37297958821517       -1.27743060654914
C            1.60344870804408       -0.33378203658462       -0.75110115682072
C            2.67997883670676       -0.62897311854971       -1.81205277257731
C            3.97752230254432       -0.55777842798397       -1.17845617709867
C            6.64989672230451        1.77209250151423       -1.96940638960549
C            7.43731012851127        1.47934412861194       -0.92927944773642
C            7.17062942676283        0.59032775320748        0.17138400000479
O            8.00325506331068        0.52559530591710        1.23922186042380
C            9.00038142067291        1.49707897682955        1.43800154472235
C            6.12302358243909       -0.31223185668696        0.25254342928043
O            6.07345970803786       -1.07107915476498        1.38634163570761
C            5.67677774085263       -2.42179497831833        1.28080744838042
C            5.04425525093254       -0.39022587969995       -0.63705183620034
C           -0.37915269770153       -1.66129753618722       -1.38372618901968
C           -4.02103360035015        2.72433625930947        0.66264249867353
C           -4.44308818436807        2.45542976999511        2.10500341729792
C           -3.58761694827535        4.18144838504664        0.52005391290439
H           -4.89628795994980        0.50163114590133       -1.25724665333690
H           -7.10009393023346       -0.18901091010582       -1.68877304332639
H           -7.45484149340926       -1.72582740304139       -2.51365232987373
H           -5.92739110053089       -0.87720519619317       -2.85204210737758
H           -5.17725460433659       -3.73348339116195        2.92087457256267
H           -5.67494957091208       -5.09090798372138        1.88127716648626
H           -3.96551984830988       -4.59657520180927        1.93016852152937
H           -3.28133865500723       -2.38548320555307        2.38955314045703
H           -2.29285564908567       -0.19723699629946        2.05259266797313
H           -3.49987749504963        2.14827677766918       -1.85147933127358
H           -1.99410599872653        2.90326251863756       -1.34982799953351
H           -2.32248591926666       -0.09065338915891       -1.85790880050782
H           -1.78849356990715        1.08563241223163       -3.06217123965659
H           -0.87999278711610        1.12797290973356        0.54855137088025
H            0.18065687123402        1.67216038031242       -1.47946052771927
H            1.68899051555441       -1.06715789775833        0.05654762396387
H            1.79549105250009        0.65510307791016       -0.32875584663239
H            2.61105708412332        0.10289110537859       -2.62236475642223
H            2.53282764720907       -1.62455979772573       -2.23943204956961
H            7.00968097437906        2.43373308301643       -2.74076542488265
H            8.41719525037586        1.93578706787809       -0.90074630547973
H            8.61949730578144        2.51136858803552        1.29048528486055
H            9.86647932117586        1.32625606879237        0.78864681558071
H            9.31276516439520        1.38056393618294        2.47590027148943
H            5.21729447070104       -2.69552464373026        2.23055578551050
H            4.96654911477048       -2.57656592259941        0.46426561413421
H            6.55768550022507       -3.04897710512270        1.11583498255029
H            5.65622290217278        1.38339727365469       -2.08352186990319
H           -0.74856880414142       -1.82941990759559       -2.39445551590254
H           -1.21927280810938       -1.73662028887058       -0.68693869000257
H            0.33824836338765       -2.44019160961030       -1.14342076425228
H           -4.89512405663631        2.56303879194215        0.02085298158751
H           -3.60008683385678        2.59995315040626        2.77297892020297
H           -4.82049969581315        1.44237183520258        2.22359489872553
H           -5.23059322062356        3.14787007877224        2.38916117475225
H           -2.69470655705204        4.36598327896264        1.10885426634118
H           -3.39899628278859        4.45160853802458       -0.51531519703712
H           -4.37941162895380        4.82596527588609        0.89194978255381
H           -0.51595544048807        2.60103252184007        2.32349356090950
