  72
        -99.41866392
 N         -2.4785663168        2.9850527351        2.5741888472
 C         -2.1018461657        2.1599352192        1.5486079610
 C         -2.6930292067        2.4776470533        0.3865657163
 C         -4.7309880984        0.1170503515        1.6601095747
 C         -5.2941039496        0.0902048576        0.3891314963
 C         -5.0579066539       -0.9765647748       -0.4673100786
 O         -5.5498336718       -1.0989065368       -1.7233928431
 C         -6.5202729897       -0.1776577358       -2.1633203478
 C         -4.2417024449       -2.0500441389       -0.0286621380
 O         -4.0630746663       -3.0517448199       -0.9275659518
 C         -3.4821139265       -4.2575516228       -0.4919086679
 C         -3.6910925788       -2.0099680176        1.2428690092
 C         -3.9311067905       -0.9271147757        2.0829095560
 C         -2.5096279100        1.8752521541       -0.9646199237
 C         -1.7721526833        0.5371648069       -0.9337283949
 C         -0.3462451014        0.6877690241       -0.5759255855
 N          0.4336688346       -0.3319022676       -0.2366181463
 C          1.8433861376       -0.1470781597        0.0101588611
 C          2.7008667185       -0.5091074964       -1.2186575624
 C          4.1570844422       -0.3250347745       -0.8937205865
 C          4.7631528745        0.9113129222       -1.0387569532
 C          6.0964599085        1.0919622275       -0.7030305172
 C          6.8500026901        0.0371052620       -0.2103264218
 O          8.1472661717        0.0977699177        0.1500645386
 C          8.8382224706        1.3185220718        0.0207952204
 C          6.2374896646       -1.2363866025       -0.0599371869
 O          7.0434050940       -2.2080072022        0.4180500815
 C          6.5351723517       -3.5117597637        0.5655013908
 C          4.9033560396       -1.3924928133       -0.3989526040
 C         -0.0813008298       -1.6783083914       -0.2235604022
 C         -3.6409986434        3.6354034403        0.6144322042
 C         -3.5679063319        3.8400388263        2.1433119077
 C         -3.2214712920        4.8886481249       -0.1563466956
 H         -5.9316779221        0.9015978416        0.0809817127
 H         -7.3781439786       -0.1454562403       -1.4854859348
 H         -6.8452266079       -0.5352946744       -3.1384671726
 H         -6.1029063625        0.8293085453       -2.2707080191
 H         -4.0269698684       -4.6809529306        0.3568645865
 H         -3.5496991160       -4.9382670075       -1.3383171542
 H         -2.4288960500       -4.1269278341       -0.2190431090
 H         -3.0905872267       -2.8331313393        1.5990729479
 H         -3.5013144531       -0.9195567394        3.0716847120
 H         -3.4955622514        1.7229348357       -1.4114014569
 H         -1.9715787984        2.5747973650       -1.6129467569
 H         -2.2807318023       -0.1326183886       -0.2332977211
 H         -1.8537810478        0.0665691130       -1.9227736664
 H         -1.3690678375        1.3959014244        1.7371316807
 H          0.1033926821        1.6663851158       -0.5958765611
 H          2.1418353578       -0.7736266241        0.8550181046
 H          2.0277396846        0.8952992250        0.2763656228
 H          2.4160643391        0.1384879138       -2.0493489401
 H          2.5095537104       -1.5436254561       -1.5066008236
 H          4.2008763665        1.7466819635       -1.4275410262
 H          6.5422485579        2.0642982746       -0.8335873240
 H          8.3910144867        2.1002927006        0.6425092399
 H          8.8700366247        1.6528219914       -1.0205862927
 H          9.8506644178        1.1185581822        0.3663393781
 H          7.3657445460       -4.1087819778        0.9370560016
 H          5.7152912127       -3.5442605585        1.2905536619
 H          6.1953038660       -3.9210797957       -0.3910620678
 H          4.4310115412       -2.3567508452       -0.2934573338
 H         -0.4784537222       -1.9555401815       -1.2024268342
 H         -0.8887823476       -1.7664964092        0.5074404846
 H          0.7125898309       -2.3702030147        0.0451869074
 H         -4.6552564998        3.3669081413        0.3023507486
 H         -3.3483593727        4.8791875341        2.4020476200
 H         -4.5060040457        3.5613221609        2.6360436497
 H         -4.9337987063        0.9436650743        2.3116582927
 H         -2.2037329355        5.1688880236        0.1036352771
 H         -3.2744576119        4.7131927129       -1.2274679288
 H         -3.8837305430        5.7157176026        0.0859491359
 H         -2.4238695890        2.6894809933        3.5343562693
