  25
        -42.12377353
 C          3.0177671014        1.2573098802        0.0709293711
 N          2.2331808877        0.0549650382       -0.0335743554
 C          2.8184624079       -1.1755646850       -0.1946863783
 N          2.2327419127       -2.2826360063       -0.2440826472
 C          0.1761370139       -1.1097875864        0.0771698772
 C          0.8604342127        0.0539657678        0.0595868643
 C          0.0510434619        1.3021976570        0.0947662303
 O          0.5197396268        2.4062921215        0.2160808079
 N         -1.3048999855        1.0822852880       -0.0701004978
 C         -2.1672240043        2.2497646423       -0.2047296079
 C         -1.9627813485       -0.1259490729       -0.0554828014
 O         -3.1517462161       -0.2546122162       -0.1277823816
 N         -1.1300981063       -1.2672597783        0.0877230508
 C         -1.7938053198       -2.5352691930        0.3136163994
 H          2.8961909490        1.7051156790        1.0574627185
 H          4.0647315080        1.0267567225       -0.0934239510
 H          2.6919761179        1.9962511736       -0.6612565661
 H          3.8949017167       -1.1804246420       -0.3119842165
 H         -1.5483302613        3.1193504294       -0.4112191808
 H         -2.8720175737        2.0754164960       -1.0162564187
 H         -2.7318218082        2.4106752860        0.7140426314
 H         -1.0536527453       -3.3120398381        0.4877243591
 H         -2.4116774431       -2.7904130545       -0.5495196664
 H         -2.4540770314       -2.4438079416        1.1782536555
 H          1.1635961506       -2.2412868407       -0.1024041289
