  72
        -99.29041654
 N         -1.8113898898        2.9520899395        2.3188834799
 C         -1.8137627214        2.2072198303        1.3167841970
 C         -2.9041642582        2.1816626147        0.2790852143
 C         -3.4054911207        0.7559797995        0.2556328910
 C         -4.5540585917        0.3325293279       -0.2999216486
 C         -5.0476019200       -1.0150024326       -0.3187954444
 O         -6.1679333401       -1.3527820778       -1.0069813615
 C         -6.8367366544       -0.4194719048       -1.8170017723
 C         -4.4947803988       -2.0959055812        0.3533930235
 O         -5.1535449541       -3.2779187849        0.2110684267
 C         -4.7786615712       -4.3652795919        1.0210953271
 C         -3.3273214688       -2.0622007305        1.1363973901
 C         -2.3413636252       -2.2769623804        1.8001244384
 C         -2.2498684879        2.5165830950       -1.0911026314
 C         -1.3767808491        1.3984186949       -1.6802483265
 C         -0.0888763424        1.2233642525       -0.9746041116
 N          0.5051832224        0.0582853187       -0.7381834505
 C          1.8751491265        0.0189689447       -0.2837899091
 C          2.8507553120       -0.2117184043       -1.4544152823
 C          4.2693276146       -0.1515096631       -0.9630938431
 C          4.9526797386        1.0525613004       -0.9279192892
 C          6.2541389774        1.1161704850       -0.4546971273
 C          6.8969136967       -0.0261752630       -0.0003830217
 O          8.1552384981       -0.0825584452        0.4750421385
 C          8.9290332540        1.0944821215        0.5093843908
 C          6.2009655769       -1.2660168668       -0.0263877124
 O          6.8989154549       -2.3254154417        0.4310543482
 C          6.3032111206       -3.6003216692        0.4161239060
 C          4.9006163651       -1.3049209447       -0.5033114360
 C         -0.1169103534       -1.1992198393       -1.0768539598
 C         -4.0464511040        3.1984362151        0.5539484832
 C         -4.7750653858        2.8920306469        1.8608462536
 C         -3.5623027870        4.6477302086        0.5725950573
 H         -5.2028804783        1.0605805187       -0.7714922449
 H         -7.3241634722        0.3602778975       -1.2222998254
 H         -7.6009748362       -0.9944160030       -2.3371036206
 H         -6.1695360944        0.0380123400       -2.5545400689
 H         -4.8343211854       -4.1079103802        2.0821709868
 H         -5.4947848813       -5.1539019385        0.7933112911
 H         -3.7640247247       -4.7081436399        0.7931500177
 H         -2.7622682834        0.0261436031        0.7250710343
 H         -1.5155532383       -2.4042029730        2.4283863633
 H         -3.0502913491        2.7261908855       -1.8014689826
 H         -1.6497866990        3.4200832366       -0.9811578572
 H         -1.9467558072        0.4707003375       -1.7203277288
 H         -1.1472382059        1.6907305832       -2.7147324707
 H         -1.0089578508        1.4842886586        1.0843429714
 H          0.4781646129        2.1112368762       -0.7384944547
 H          1.9893358634       -0.7822758326        0.4507438024
 H          2.1222289357        0.9654012387        0.2013536221
 H          2.6839014441        0.5636152034       -2.2042234669
 H          2.6510933079       -1.1821733678       -1.9104756735
 H          4.4779921687        1.9542000573       -1.2842481464
 H          6.7633553036        2.0657615766       -0.4488695874
 H          8.4816825108        1.8493556957        1.1632553216
 H          9.0659065010        1.5128346438       -0.4922937862
 H          9.8954961419        0.7966210319        0.9112107578
 H          7.0573864228       -4.2798293376        0.8081549836
 H          5.4165447607       -3.6368123775        1.0574596445
 H          6.0340249490       -3.9062293866       -0.5996923263
 H          4.3670761036       -2.2420063495       -0.5367779381
 H         -0.2553163540       -1.2958325774       -2.1557639244
 H         -1.0908064122       -1.2909228188       -0.5905549141
 H          0.5142005485       -2.0150534366       -0.7341017014
 H         -4.7625723065        3.1011531598       -0.2701182563
 H         -4.1132140044        3.0669072883        2.7028528439
 H         -5.1176597498        1.8607026016        1.8923502519
 H         -5.6383228919        3.5457346731        1.9590987865
 H         -2.7948208696        4.7772716964        1.3287433273
 H         -3.1744438768        4.9614473593       -0.3928294294
 H         -4.3965720676        5.2984598439        0.8218662026
 H         -1.0247118627        2.8783304963        2.9577160547
