  25
        -42.18781087
 C          3.0204953378        0.5980392639        0.7757367712
 N          2.1433568864       -0.3658620572        0.1198007341
 C          2.6407171957       -1.4206150179       -0.4019554104
 N          2.8119302819       -2.5772581395       -0.6458414416
 C         -0.1342669204       -1.1933825099        0.2191090753
 C          0.7405083866       -0.1458764371        0.0881607999
 C          0.2375935719        1.2045606801       -0.1220955559
 O          0.9343048702        2.1838507428       -0.3126473050
 N         -1.1499015438        1.2979336589       -0.0937059742
 C         -1.7535739767        2.6095517508       -0.2520756126
 C         -2.0383372564        0.2488259981        0.0451583626
 O         -3.2319535430        0.4151728173        0.0376631813
 N         -1.4709175076       -1.0166230643        0.1940989099
 C         -2.3591935977       -2.1507619404        0.3313849090
 H          2.7498552966        0.6739396385        1.8302936797
 H          4.0539256737        0.2701539604        0.6883349914
 H          2.9017287062        1.5794080392        0.3118513475
 H          3.3842540299       -3.1135416467       -1.2768708072
 H         -0.9570195851        3.3464651018       -0.3354393877
 H         -2.3786220737        2.6276889019       -1.1462585394
 H         -2.3872679044        2.8285509230        0.6085234568
 H         -2.1512947852       -2.6845164031        1.2591186078
 H         -2.2375714743       -2.8328309304       -0.5111301090
 H         -3.3838633326       -1.7813074799        0.3482990874
 H          0.2190555684       -2.2048343731        0.3594023610
