25
 energy: -42.131295369067 gnorm: 0.003933477988 xtb: 6.6.1 (8d0f1dd)
C            3.89376457319494        0.90903590716501       -0.00326909189910
N            2.86448141448367       -0.09243299021167       -0.03724244394990
C            3.01058206985590       -1.39408331129005       -0.09987588684158
N            1.84230934200452       -2.02172658000940       -0.08205751656758
C            0.76830824002855       -1.07860939260636        0.00563905711380
C            1.48958718787695        0.20778703051510        0.03430444514322
C            0.95770831625095        1.41461017362827        0.10344426689356
O            0.42630437258652        2.43211662943714        0.15929739124507
N           -3.28716352142273        1.08553814017821        0.02120374919845
C           -3.33948819214516        2.49586380133874        0.01133707111295
C           -3.87891238645523        0.05681073394160        0.02303272155380
O           -4.25112621279886       -1.04144272793504        0.02061142125561
N           -0.46328264481460       -1.25575751376601        0.04991694647988
C           -1.11392184007793       -2.53084367440716        0.01919428574436
H            3.98359954957417        1.32856332615058        1.00278483025604
H            4.84744907592668        0.46807436031372       -0.28956051069098
H            3.64854022570761        1.71622661334926       -0.69544873815155
H            3.96906560949055       -1.88132466413830       -0.16029965747967
H           -2.31414633124056        2.86562450834623        0.04310790398141
H           -3.82378476644184        2.85945716890877       -0.89741976994037
H           -3.88285771543641        2.87136355061640        0.88090156091648
H           -0.87106740837635       -3.11717374960742        0.90893580265464
H           -0.83486227507489       -3.10930278519501       -0.86529034986106
H           -2.18629625030209       -2.34963304232450        0.00224073085843
H            1.70564108170612       -3.02050297079781       -0.12431660112594
