25
 energy: -42.238051354465 gnorm: 0.001234135580 xtb: 6.6.1 (8d0f1dd)
C            3.34548875124877        1.30534067272827        0.01822927003650
N            2.42869843853646        0.19632475773136       -0.00000370212722
C            2.73718706966506       -1.11306423432765       -0.00485611060128
N            1.67951881205476       -1.90005555982241       -0.00610975078033
C            0.63565030215099       -1.06225202078520       -0.00058229159807
C            1.06114913486946        0.26478981913062        0.00389174341677
C            0.15096058475070        1.36735215354915       -0.00140763177719
O            0.37868567381519        2.54401733277458       -0.00875361852309
N           -1.21221152987069        0.88637606655556        0.00026136520728
C           -2.26089696531727        1.89652673312282       -0.00034485707254
C           -1.57854863684799       -0.39770477450994       -0.00117988814721
O           -2.87048870340549       -0.63070828397700       -0.00234380781329
N           -0.69830630569075       -1.40032153578381       -0.00202936169074
C           -1.06827331257139       -2.80593171046867       -0.00513536651682
H            3.85020306329425        1.36021188636631        0.98397399204401
H            4.09489339354938        1.18087047031618       -0.76275189166694
H            2.79351099027272        2.22848333440603       -0.14718259420053
H            3.74068823185706       -1.48879310089428       -0.00898952794169
H           -1.77524935237182        2.87070749383027        0.00699360621571
H           -2.87869821493660        1.79789097516908       -0.89133560724633
H           -2.88826197704304        1.78832570913391        0.88274145217872
H           -1.63259207350553       -3.06700814377289        0.89152964616452
H           -1.63247096997967       -3.06335626416209       -0.90275301279650
H           -3.10620568583340       -1.57260258773792       -0.00437046122341
H           -0.13399920459112       -3.36718064697225       -0.00631997564032
