25
 energy: -42.080620564737 gnorm: 0.004983288403 xtb: 6.6.1 (8d0f1dd)
C            3.27990076799657        1.09755465256694        0.04627222538649
N            2.33179784866254        0.01532166935223        0.00980115411091
C            2.60079277206179       -1.28171564032912        0.03722961193469
N            1.45365197378003       -1.99092304341638        0.00849156898646
C            0.41323048958143       -1.11155621878241       -0.03897942988451
C            0.96318582976474        0.16521996506766       -0.03986336696268
C            0.15900163956448        1.35084239186466       -0.10134850146560
O            0.54135828068341        2.50000798228032       -0.11727418147087
N           -1.23557016872820        1.03065964185480       -0.15473010692158
C           -2.10167996584734        2.05637065820677       -0.23893528411409
C           -1.80035938805612       -0.27454776303624       -0.12864261133962
O           -2.98752492152274       -0.44236051882413       -0.15592946711883
N           -0.91208723888180       -1.34864250305167       -0.07326463196922
C           -1.44650626674347       -2.69875147387235       -0.05544444386819
H            3.78227298332847        1.12669967669038        1.01365824767611
H            4.02840051923103        0.97285926106162       -0.73517062893973
H            2.74492719600173        2.03491855910135       -0.10357664097259
H            3.58253255810180       -1.71121281372654        0.07744115219161
H           -1.69340968127284        3.04879554136113       -0.26613746231042
H           -3.15110840058031        1.84009810286902       -0.28670525690929
H           -3.99201008108949        3.52802408200903        1.46970131442246
H           -1.12977804064153       -3.21991238607911        0.84761131060918
H           -1.12675023999370       -3.24693717395459       -0.94176416151518
H           -2.53305131945912       -2.62326519761814       -0.05898758445306
H            1.38921436815851       -2.99930890999521        0.01771879279750
