  25
        -42.18836301
 C          3.2335258920        1.1216166520        0.0417161253
 N          2.2618194056        0.0635933319       -0.0142491394
 C          2.5312827434       -1.2562099284       -0.0228332774
 N          1.3730079863       -1.9564316973       -0.0289426376
 C          0.3419799429       -1.0718734167       -0.0217383592
 C          0.8908517335        0.2159371717       -0.0118412919
 C          0.0516946082        1.3243529246       -0.0065479131
 O          0.5115079649        2.5883119982        0.0414864900
 N         -1.3075761736        1.0977958349       -0.0303685393
 C         -2.1907535430        2.1085534252       -0.0669152425
 C         -1.8785944045       -0.2254646636        0.0141561229
 O         -3.0696295411       -0.3706023396        0.0466451797
 N         -0.9982384573       -1.2890661658        0.0051927424
 C         -1.5317727896       -2.6392192983        0.0180712566
 H          3.6199482542        1.2324433233        1.0572229146
 H          4.0636942271        0.9010235361       -0.6277852310
 H          2.7610169764        2.0543873351       -0.2563146160
 H          3.5113321202       -1.6833892737       -0.0234523500
 H         -0.2202101947        3.1803167770        0.2805886708
 H         -1.8999995216        3.1148149649       -0.2898525834
 H         -3.2216920323        1.8691593739        0.0535646294
 H         -1.2159403476       -3.1618549372        0.9211600998
 H         -1.2017585048       -3.1838897703       -0.8668582802
 H         -2.6181067558       -2.5691078943        0.0096431195
 H          1.3021787919       -2.9626286578       -0.0403029006
