  72
        -99.38849054
 N         -1.2435469692        2.2909421023        2.2558966517
 C         -1.5197366407        1.5373880582        1.2960757544
 C         -2.7715601043        1.6566861365        0.4710264197
 C         -3.4511434177        0.2997434927        0.3993861518
 C         -4.4071454187        0.0314969690       -0.5789667882
 C         -5.0898955791       -1.1750944525       -0.6141091834
 O         -6.0273133912       -1.5135523910       -1.5185259294
 C         -6.4072571568       -0.5856182803       -2.5073773800
 C         -4.8160413536       -2.1655050500        0.3712780132
 O         -5.5310668167       -3.2989087800        0.2678662922
 C         -5.3615838817       -4.3114316000        1.2330796993
 C         -3.8657711965       -1.8895135684        1.3444200209
 C         -3.1987343676       -0.6749510073        1.3581798273
 C         -2.2982992349        2.1181004987       -0.9322785202
 C         -1.4301486918        1.1131078019       -1.7068925454
 C          0.0934724463        1.3394618354       -1.5826140542
 N          0.7068708418        0.4235334676       -0.6362615976
 C          1.8095505460        0.9644910668        0.1526022397
 C          3.0184260554        1.3160820049       -0.6512619820
 C          4.2686073918        0.7274875804       -0.5952146970
 C          5.3232353552        1.2740612896       -1.3810435273
 C          6.5987410009        0.7775293880       -1.3200051817
 C          6.9070866339       -0.3085059744       -0.4945604081
 O          8.1117987556       -0.8624277475       -0.3497244698
 C          9.2202421422       -0.3273861529       -1.0398002555
 C          5.8592264856       -0.9074697898        0.2778942212
 O          6.2502771858       -1.9643758938        1.0168011244
 C          5.3057948961       -2.6316865558        1.8197616537
 C          4.5876562330       -0.3928577319        0.2251834178
 C          0.9938566950       -0.8753794418       -1.1988512044
 C         -3.8117395818        2.6685314845        1.0404071957
 C         -4.2772826495        2.2663540032        2.4379931146
 C         -3.3109645957        4.1102125987        1.0692104081
 H         -4.6313252015        0.7786864173       -1.3214786684
 H         -6.8176827778        0.3267220766       -2.0641477073
 H         -7.1808512110       -1.0814510347       -3.0905548047
 H         -5.5683114118       -0.3306789396       -3.1624455009
 H         -5.6139546797       -3.9535252157        2.2357013262
 H         -6.0502512748       -5.1046601606        0.9488783349
 H         -4.3389395443       -4.7006066709        1.2304332328
 H         -3.6451511844       -2.6154247520        2.1099756650
 H         -2.4889152699       -0.4847572235        2.1481932767
 H         -3.1864480353        2.3463286077       -1.5221925196
 H         -1.7489849647        3.0525637142       -0.8182146518
 H         -1.6766090733        0.0988580155       -1.3877500450
 H         -1.6892451701        1.1909283454       -2.7629046030
 H         -0.8527434926        0.7465248736        0.9277939470
 H          0.2720630866        2.3603776667       -1.2347395301
 H          2.0472063592        0.2331558787        0.9275763136
 H          1.4413051834        1.8733347955        0.6435408114
 H          2.8822818157        2.1295121084       -1.3498755085
 H          0.5514725039        1.2329949111       -2.5682262709
 H          5.1081073118        2.1143527639       -2.0225102171
 H          7.3720912615        1.2337223717       -1.9168561342
 H          9.4069691042        0.7099463762       -0.7476290724
 H          9.0831886095       -0.3845946065       -2.1231905567
 H         10.0693613391       -0.9434531189       -0.7498557104
 H          5.8559951428       -3.4284908138        2.3162906158
 H          4.8772256005       -1.9636709011        2.5732985620
 H          4.5041816399       -3.0677564125        1.2151462183
 H          3.8066180696       -0.8485300702        0.8096410981
 H          1.8245473548       -0.8424824034       -1.9162814971
 H          0.1107912955       -1.2493753626       -1.7124603507
 H          1.2522168986       -1.5706096936       -0.4011098045
 H         -4.6795775062        2.6222495086        0.3709875173
 H         -3.4479777445        2.3224973715        3.1372185199
 H         -4.6812107530        1.2567535100        2.4461576750
 H         -5.0552977311        2.9466462156        2.7744585214
 H         -2.3944032021        4.1755878652        1.6479114633
 H         -3.1381307161        4.5019651761        0.0706809273
 H         -4.0600084417        4.7382549198        1.5449174868
 H         -0.3593412549        2.1531349417        2.7349307322
