25
 energy: -42.197881025671 gnorm: 0.006924358917 xtb: 6.6.1 (8d0f1dd)
C            3.30483383412798        1.11656934478899       -0.00642328642029
N            2.32043763763216        0.07045560815882        0.00947840729454
C            2.55439925098068       -1.25400112367341        0.03861475244196
N            1.36822435150485       -1.92700055029129        0.04194386344204
C            0.36204574473250       -1.00533701316013        0.01384260385058
C            0.95106472802947        0.26060571323815       -0.00676067919169
C            0.20378062045457        1.46427578635530       -0.04396147307766
O            0.60570734065472        2.61142930685289       -0.06830320464056
N           -1.24229119462048        1.20057382845683       -0.06861097445919
C           -2.01409124218307        2.30784778104560       -0.15540762827733
C           -1.76209027536771       -0.05194006624978        0.02349776444866
O           -3.08596497995661       -0.27452292698880        0.05234825079596
N           -0.98284404956623       -1.18637864066916        0.02657451388598
C           -1.55971274446994       -2.51374407007756        0.06147090974530
H            3.92664618016778        1.06907141533916        0.88879605217965
H            3.94609339449265        1.02387103826973       -0.88430318387118
H            2.78927154652022        2.07548439625206       -0.03642734117137
H            3.51869836386375       -1.71476475250994        0.05822329116272
H           -1.50007203424474        3.24711253166341       -0.18317640566585
H           -3.07876225524020        2.25279575617596       -0.26018308968632
H           -3.59575865935453        0.52088569811232        0.25504367236871
H           -1.20270869108640       -3.05399257050240        0.93980257720960
H           -1.29011226961916       -3.06166123953407       -0.84296282963021
H           -2.64154556298366       -2.43045097355001        0.11185683335275
H            1.26518247963144       -2.92894573590274        0.06619822181317
