72
 energy: -99.659464286171 xtb: 6.6.1 (8d0f1dd)
N           -1.68396809690218        2.98003332783853        2.27229865515096
C           -1.67532497189827        2.23789310631443        1.25756468233625
C           -2.83548178000771        2.11091930318104        0.30654687378681
C           -3.37818673455217        0.69116425528825        0.36490930286433
C           -4.33564919553967        0.27267771685461       -0.56208182532965
C           -4.87199148366323       -0.99988531566433       -0.52134065306178
O           -5.81541136919051       -1.48379732518321       -1.37852002057201
C           -6.37930790655157       -0.61328019073628       -2.32483058088601
C           -4.43991846026394       -1.90916618132544        0.46999523551527
O           -5.02039043722804       -3.14181092999419        0.42625484265312
C           -4.69329249368501       -4.07368466741502        1.42422247324083
C           -3.49491576992913       -1.49351471674327        1.38833265124287
C           -2.97456628442799       -0.20529533264202        1.33677142696035
C           -2.27013866659570        2.40316185343345       -1.11053993912409
C           -1.39949094361287        1.28349332315220       -1.72136331824032
C           -0.06347323927120        1.17703298574245       -1.08453267752238
N            0.57844226080990       -0.01539884344064       -0.80022611079235
C            1.94204255269008       -0.03680169714768       -0.33563376877260
C            2.98049714116520       -0.51928457995473       -1.39869840203314
C            4.43272622154769       -0.56488180646039       -0.88844810395859
C            5.15015498509863        0.60850802081550       -1.08337559640537
C            6.45512807548521        0.69542119030438       -0.64098275659207
C            7.06569456738558       -0.37719901138183       -0.00004044708061
O            8.31657099216169       -0.37537327008869        0.48958627663782
C            9.12188817536812        0.74372229632791        0.32674823484589
C            6.44505417186202       -1.62047916867934        0.22381079002154
O            7.50238335495861       -2.46671057707728        0.91548026840044
C            7.08434217831041       -3.68223520430225        1.53103190544733
C            5.09016211327020       -1.66674875020441       -0.24207887460314
C           -0.13615041964787       -1.26075244973191       -0.89152266874289
C           -4.00783469064282        3.08779019016369        0.61950420049172
C           -4.65533212226773        2.77622913509866        1.96832943071683
C           -3.59694524186395        4.55841719557851        0.58047729967882
H           -4.66929772828826        0.96235403148391       -1.32036766644284
H           -6.84973523674481        0.25353883073702       -1.84805710592930
H           -7.14175450933911       -1.19751207163340       -2.83829756082847
H           -5.63796087199081       -0.26952914622756       -3.05471531885686
H           -4.94659237847869       -3.70284028879403        2.42338141021896
H           -5.29203762195398       -4.95667120240565        1.20367201113336
H           -3.63148150607686       -4.34383112645088        1.39690273218925
H           -3.15671568464804       -2.15970263452990        2.16627149335102
H           -2.26068160949776        0.09419192077033        2.08828429181142
H           -3.10887590913016        2.58974431588055       -1.78480158592500
H           -1.67590032178326        3.31748859826887       -1.06066254689204
H           -1.94942246862345        0.34493326321310       -1.67107710095640
H           -1.28030460336035        1.52923209742222       -2.79033953474010
H           -0.80231301293938        1.65434103926162        0.92156331181026
H            0.55276852493211        2.05816388347118       -1.07076247754279
H            2.01518582705370       -0.70739085118051        0.52495868830425
H            2.21060576770696        0.97174322444860       -0.01044663459645
H            2.90276169701213        0.19634472265487       -2.23106660264753
H            2.64185959970962       -1.48295701472569       -1.78141650568897
H            4.70610709329602        1.46155479903652       -1.58661637636100
H            7.00099506251248        1.61177421593031       -0.80013433478473
H            8.70029573727146        1.61328256750510        0.83891313342182
H            9.27895180556819        0.95957048311251       -0.73366653287792
H           10.05499433832785        0.44593764408100        0.79434377973382
H            7.55802500582511       -4.60527825458328        1.16322955333139
H            7.07029574302047       -3.72215832459512        2.63898042152212
H            6.08055916839193       -3.59718499676293        1.24739360314092
H            4.44436642233339       -2.53557491143278       -0.15561647738194
H           -0.36614764822735       -1.51137336148360       -1.93295623244408
H           -1.07937632217110       -1.22486445291829       -0.33393897484437
H            0.47674897240222       -2.05553384641183       -0.47209054734107
H           -4.76444311595276        2.93154059940415       -0.15929132403892
H           -3.94001815218950        2.93784900728287        2.76702010298614
H           -5.00139248257823        1.74593148779946        2.00710697135940
H           -5.50884991090186        3.43184198647072        2.12783024104017
H           -2.82897965091284        4.74806664445734        1.32266262150143
H           -3.22897031821680        4.84689683676118       -0.40029252169303
H           -4.45962757656094        5.18073956000302        0.81050469251754
H           -0.82812412731294        3.00056285749966        2.82041907195016
