  25
        -42.07849083
 C          2.5257082613        0.8883928308       -1.2389563404
 N          1.9509892792       -0.0746495948       -0.3251127329
 C          2.7387104925       -0.9575939454        0.3488295270
 N          2.4234953231       -1.7969176415        1.2305097505
 C         -0.1891699171       -1.1063404318       -0.0858693423
 C          0.5558396655        0.0203068226       -0.0772337896
 C          0.0655090831        1.3155868534        0.2431668506
 O          0.6528903779        2.3219133507        0.4952588874
 N         -1.4699598745        1.4283431511        0.2331852202
 C         -1.9752133710        2.6813327444        0.8108080959
 C         -2.1964026188        0.6458719489       -0.4178911640
 O         -2.7935913835       -0.1246655292       -1.0336658802
 N         -0.7812151261       -2.1101159910       -0.2747561428
 C         -1.3579405581       -3.3233945999        0.0835358123
 H          2.6895983711        1.8502426990       -0.7457854659
 H          3.4777975899        0.5144765013       -1.6077959857
 H          1.8536232251        1.0396699062       -2.0840201136
 H          3.7845152923       -0.9201861848        0.0584069719
 H         -1.3014311017        2.9663474372        1.6170378337
 H         -1.9706716440        3.4683558746        0.0566679246
 H         -2.9828256996        2.5365015138        1.1906823089
 H         -1.2780599587       -3.5237613741        1.1545049829
 H         -0.8557151279       -4.1144620079       -0.4771749942
 H         -2.4065286068       -3.3077140088       -0.2207040575
 H          1.4730668501       -1.8612264673        1.5758117803
