25
 energy: -42.579318522326 xtb: 6.6.1 (8d0f1dd)
C            3.35368693372949        1.19561932538483        0.18964508544011
N            2.34729133296461        0.13265420539008        0.14659776171094
C            2.60642505833608       -1.24310017175554        0.07700023441496
N            1.40562539702734       -1.91846335786671       -0.08499328212736
C            0.39263693565059       -1.03833760445301       -0.04490620167747
C            0.93448215346326        0.24630652000038        0.04797650880440
C            0.09261418651108        1.37897703905080       -0.03255480649008
O            0.42645553533099        2.56110167462194       -0.07949431864515
N           -1.30003512211015        1.02227890321853       -0.04901023562165
C           -2.26141298891855        2.11334008349406       -0.05294086377459
C           -1.84767131255189       -0.22124689735144       -0.03965951673729
O           -3.04645223131403       -0.41749577009374       -0.02239196711660
N           -0.95155558558099       -1.30389575796802       -0.06462525624510
C           -1.51023048380012       -2.64249807970219       -0.03681058989147
H            3.85321503133204        1.58905745987314        1.13645235442448
H            4.21487011287438        0.85223663071869       -0.38650814259144
H            2.89187587932762        2.06354709140695       -0.27671054669753
H            3.53407932543366       -1.67643125992659       -0.23357767557394
H           -1.69587807267136        3.04107125120798       -0.01569917911483
H           -2.87073059226100        2.07634572253879       -0.95652168300572
H           -2.92270665910155        2.02968072428530        0.81017590733399
H           -1.20631194575245       -3.18334377234448        0.86228882282015
H           -1.22874367328321       -3.21365982586666       -0.92305429476435
H           -2.59722470074636       -2.53264395117893       -0.02540225739416
H            1.32116024485270       -2.92086357271482       -0.13972140656950
