25
 energy: 0.000000000000 xtb: 6.6.1 (8d0f1dd)
C            3.23720132972391        1.16630909158653        0.08434468864950
N            2.29877796055224        0.07527476373246        0.03981602671198
C            2.58028186251803       -1.21425391179017        0.03006175752192
N            1.43813944744728       -1.93419254010258        0.00098261751768
C            0.39035684826767       -1.05887462812143       -0.00790371763344
C            0.93510047688824        0.21347817468824        0.01709077332874
C            0.09450143016486        1.40504290868848       -0.00410946993748
O            0.49712746915594        2.54126690785742       -0.00342325656480
N           -1.25076628431515        1.06271869620815       -0.03085477937476
C           -2.21907191394203        2.15522079838987       -0.05001256521996
C           -1.81739470187490       -0.20012724136556       -0.04692818139228
O           -2.99983858926755       -0.37846413507442       -0.07008877579474
N           -0.92618577614240       -1.30210203518959       -0.03682761236648
C           -1.46982251276835       -2.64643077634382       -0.06029819901142
H            3.71247229913541        1.21471443890471        1.06488839270555
H            4.00791460421487        1.03430799217987       -0.67357688121503
H            2.69909982127087        2.09770098766290       -0.09130154035862
H            3.56654087521359       -1.63682977417947        0.04233139674524
H           -1.67107945562430        3.09322822573871       -0.02552706696334
H           -2.82428927394145        2.09428605349656       -0.95318074103337
H           -2.87644002486466        2.07745706351925        0.81450059976605
H           -1.17061985538665       -3.19584861009707        0.83242224714061
H           -1.14560246782873       -3.17511580834413       -0.95688266944647
H           -2.55549768731684       -2.55659960601237       -0.07459039105944
H            1.38130842369251       -2.94313824728853       -0.01389874052104
25
 energy: -6.392513211646 xtb: 6.6.1 (8d0f1dd)
C            3.24955904021288        1.17287015601885        0.09448991219520
N            2.30875713174142        0.10191104729374        0.04298276726812
C            2.60145217526981       -1.24269614805975        0.02862919578982
N            1.41887537093441       -1.93974065442381       -0.00575989306029
C            0.39871656099898       -1.06038961826381       -0.01239429773095
C            0.92164714667418        0.22611830586675        0.01333371576046
C            0.11457223625790        1.38607691898730       -0.00733110815413
O            0.49055857249653        2.56139862765422       -0.00931804798222
N           -1.26945556219797        1.04903398651481       -0.03196570417271
C           -2.22254237063986        2.14711381216076       -0.04967681971381
C           -1.81771379717412       -0.19726030512575       -0.04673787697402
O           -3.01653006145742       -0.38501322799282       -0.06782817765309
N           -0.93960902389491       -1.30094924192950       -0.03849231571458
C           -1.47602280938714       -2.64218986028515       -0.05892782177938
H            3.73316706705708        1.24733004800740        1.07458264992161
H            4.02937353845495        1.02375331552237       -0.65293958530279
H            2.71193527233341        2.09662809946736       -0.10635200066640
H            3.57532982601004       -1.66200033569943        0.02367626043472
H           -1.66374589768384        3.08080885036950       -0.02494736742400
H           -2.82875156904133        2.09351651002002       -0.95384260537630
H           -2.88115192776085        2.07526071952773        0.81572133713285
H           -1.17413379260001       -3.19497934622247        0.83386183085385
H           -1.15139655037468       -3.17741172192507       -0.95434166156742
H           -2.56168961060546       -2.55284103802928       -0.07194950475949
H            1.36385565010411       -2.94403968092676       -0.02238001595823
25
 energy: -6.323110922326 xtb: 6.6.1 (8d0f1dd)
C            3.25843827698527        1.17396853941500        0.10349292450605
N            2.31414246378875        0.10236793505454        0.05006332787599
C            2.60295723566310       -1.24716530844885        0.02424559478513
N            1.41655511650030       -1.94115833402795       -0.01404282271723
C            0.39829349924661       -1.05995576479656       -0.01875489650740
C            0.92366372458568        0.22666628764192        0.01042241239657
C            0.11443855483067        1.38464042936191       -0.01151790525919
O            0.48680366258210        2.56157277228642       -0.01480717519134
N           -1.27147055209271        1.04579822496772       -0.03302614207776
C           -2.22493550701183        2.14349338614526       -0.04910838626767
C           -1.82086128920389       -0.19937840457095       -0.04624505555846
O           -3.02027976662030       -0.38668537181550       -0.06364920862118
N           -0.94159861037319       -1.30165769211893       -0.04108740037270
C           -1.48114645422944       -2.64199031885539       -0.05740893187741
H            3.74758421892553        1.27777306391870        1.08080901379138
H            4.04867750638564        1.01021176353978       -0.62853248231777
H            2.72502818512395        2.09382681333744       -0.12297721058045
H            3.57390723907812       -1.67483589513165        0.00577590661121
H           -1.66446412266605        3.07623679148115       -0.02525944825493
H           -2.83229572273583        2.09042462337170       -0.95277829456219
H           -2.88381142129591        2.07208058811952        0.81655883388243
H           -1.18042195535005       -3.19416891341303        0.83636860244165
H           -1.15965038826874       -3.18011711591110       -0.95214361284626
H           -2.56699890137948       -2.54961244886046       -0.06918088943486
H            1.35489984002568       -2.94551520693143       -0.03082017524397
25
 energy: -6.099628573085 xtb: 6.6.1 (8d0f1dd)
C            3.26894492002537        1.17459256002925        0.11036064821024
N            2.31973632128452        0.10269234047177        0.05960082942962
C            2.60328631309461       -1.25096904501436        0.02072978511897
N            1.41343944425572       -1.94081913897905       -0.01886800755920
C            0.39713106618136       -1.05800356867864       -0.01940501779707
C            0.92612436993792        0.22824981874410        0.01436387834644
C            0.11318660065231        1.38393855019824       -0.01354975078317
O            0.48217464738708        2.56125137070183       -0.02230176211060
N           -1.27380279687319        1.04349234290320       -0.03497846084391
C           -2.22841211156781        2.14027799211558       -0.04930359464962
C           -1.82445990013829       -0.20103863451443       -0.04728459062329
O           -3.02410657295502       -0.38791096345762       -0.06363637555769
N           -0.94364528486729       -1.30172712807792       -0.04180537827335
C           -1.48505430933721       -2.64249301646765       -0.05634709136383
H            3.76236695330217        1.30648741891551        1.08556118905111
H            4.06712963773179        0.99585925128582       -0.60956972349021
H            2.74117728742749        2.09137006650719       -0.13867869335174
H            3.57083464725328       -1.68786964871156       -0.01689290632500
H           -1.66535191745613        3.07108111147766       -0.02252235142334
H           -2.83685646649029        2.09138098986250       -0.95284804733398
H           -2.88840355793896        2.06732442139367        0.81571293465212
H           -1.18446329765485       -3.19447843966626        0.83745479598837
H           -1.16705433251664       -3.18434921530076       -0.94993678394400
H           -2.57144583604780       -2.55085015751468       -0.06612437717066
H            1.34508380358845       -2.94481257822994       -0.04074786701197
25
 energy: -5.698782127679 xtb: 6.6.1 (8d0f1dd)
C            3.27863436301540        1.17571420907103        0.11817127356624
N            2.32459867785290        0.10353276150594        0.06825694175074
C            2.60355710178209       -1.25423543109578        0.01493681928094
N            1.41063388559524       -1.94031602779911       -0.02647045964571
C            0.39613191088129       -1.05633638906238       -0.02246331531992
C            0.92802795780782        0.22982819131907        0.01637382335534
C            0.11175581245076        1.38239856168536       -0.01596299701287
O            0.47626928987561        2.56051274241831       -0.02882745121591
N           -1.27641462952903        1.04042296926422       -0.03628302152826
C           -2.23131444488594        2.13681326521759       -0.04929401575067
C           -1.82783573515176       -0.20322262626274       -0.04717481685898
O           -3.02772711189455       -0.39000172482372       -0.06152595963567
N           -0.94565526073997       -1.30212211535609       -0.04319846284795
C           -1.48948298440114       -2.64253432176618       -0.05477905495210
H            3.77597656637248        1.33623234367672        1.09060037323537
H            4.08563546897331        0.98045213517632       -0.58748099553736
H            2.75711401849567        2.08934856881099       -0.15479795663568
H            3.56739174747715       -1.69843336975332       -0.03890418342478
H           -1.66604442856507        3.06606935801167       -0.02131673994296
H           -2.84059031484349        2.09024949958378       -0.95262740603485
H           -2.89178450717850        2.06315457870695        0.81554623525813
H           -1.18974125120243       -3.19406024399742        0.83963094284911
H           -1.17481092745563       -3.18737944200653       -0.94768496895465
H           -2.57616291445716       -2.54917447944271       -0.06285145186052
H            1.33659082838022       -2.94406878845544       -0.05182933202012
25
 energy: -5.140150133351 xtb: 6.6.1 (8d0f1dd)
C            3.28843298194130        1.17735488900183        0.12638751280490
N            2.32907821677284        0.10524604357133        0.07768939769388
C            2.60313952869984       -1.25545462912684        0.00656980484877
N            1.40788915889320       -1.93926723765249       -0.03480101080442
C            0.39498456505230       -1.05448030864370       -0.02520643753819
C            0.92977498719292        0.23144549537142        0.02028033039328
C            0.11020375708145        1.38070972750294       -0.01794034496478
O            0.47002728222757        2.55971574011998       -0.03504652226270
N           -1.27917149328995        1.03722415269433       -0.03758661447467
C           -2.23411614328391        2.13339741072202       -0.04962421305912
C           -1.83127773762862       -0.20551998325795       -0.04677224157477
O           -3.03134279981448       -0.39251951693604       -0.05798144697243
N           -0.94768934326065       -1.30252662776649       -0.04477243560137
C           -1.49385734432497       -2.64262815873597       -0.05297727024776
H            3.78850964425079        1.36688544996403        1.09584604216526
H            4.10384661987632        0.96509870744088       -0.56498680890301
H            2.77404036644654        2.08823262890405       -0.16910976580137
H            3.56356705694839       -1.70613239769918       -0.06251989012337
H           -1.66655480952757        3.06100598155894       -0.02052454896210
H           -2.84391779790213        2.08907970669623       -0.95288372278377
H           -2.89519193133920        2.05953256322610        0.81492519713084
H           -1.19446096120115       -3.19346284971718        0.84202912704126
H           -1.18285485257181       -3.19078478648341       -0.94513678211336
H           -2.58081457963647       -2.54768242803812       -0.05881180400401
H            1.32855671332928       -2.94278211675596       -0.06451777500203
25
 energy: -4.439763334922 xtb: 6.6.1 (8d0f1dd)
C            3.29831465400924        1.17955567798948        0.13429435482259
N            2.33279139293012        0.10837200404106        0.08723171151966
C            2.60189096399251       -1.25396564270912        0.00197295676742
N            1.40561188692417       -1.93756854282139       -0.04254693592861
C            0.39381478964870       -1.05249042929361       -0.02781823677744
C            0.93092501648575        0.23334759442462        0.02487136629973
C            0.10831298993285        1.37930381891723       -0.01969107032793
O            0.46375304665679        2.55923616811516       -0.04119709453189
N           -1.28212512083087        1.03415611642446       -0.03876688724816
C           -2.23724473202304        2.13000033493563       -0.04944376407372
C           -1.83460182245895       -0.20785956488517       -0.04612816538482
O           -3.03473922157859       -0.39554538441204       -0.05416324231057
N           -0.94960996558240       -1.30288382337950       -0.04659673414585
C           -1.49803110028749       -2.64260045779144       -0.05146583619703
H            3.80159548659582        1.39815323050007        1.09993261168902
H            4.12169984022187        0.94921519413522       -0.54213684295528
H            2.79199331494344        2.08728850654621       -0.18444649707640
H            3.55898701520693       -1.71086389371266       -0.08569439290685
H           -1.66763948322684        3.05615452477187       -0.01896282037751
H           -2.84759838308173        2.08788967536298       -0.95258732329736
H           -2.89861970104506        2.05523723291720        0.81495382562455
H           -1.19932754678576       -3.19290962592177        0.84421276543747
H           -1.19045490777385       -3.19375100046512       -0.94296443216265
H           -2.58515186222063       -2.54561578997682       -0.05548043036177
H            1.32262618975595       -2.94105387689849       -0.07616396112226
25
 energy: -3.696486835985 xtb: 6.6.1 (8d0f1dd)
C            3.30844687109984        1.18209671659566        0.14275615020121
N            2.33610582483522        0.11261026301110        0.09730990638348
C            2.60117796498068       -1.25116258584384        0.01167597422396
N            1.40430965431692       -1.93524256614926       -0.04953902894090
C            0.39298453819134       -1.05046390875208       -0.03107207924334
C            0.93182804517862        0.23532577409308        0.02928754767390
C            0.10625808269166        1.37814761861496       -0.02195761032147
O            0.45762037572210        2.55892400521341       -0.04776661862037
N           -1.28507578162562        1.03132284409320       -0.04034322227728
C           -2.24056063143163        2.12677424983118       -0.04949221522999
C           -1.83763511544235       -0.21017951777460       -0.04550410793843
O           -3.03775029757947       -0.39888538874442       -0.04930792369248
N           -0.95112260054961       -1.30318878468975       -0.04901338038756
C           -1.50179320544173       -2.64255794358873       -0.04946594090885
H            3.81378733723261        1.42962164041482        1.10442998601926
H            4.13990977281880        0.93351025818420       -0.51813455524429
H            2.81058088579978        2.08636451556476       -0.19864392627780
H            3.55369069575748       -1.71268732088274       -0.11193795235019
H           -1.66932888211707        3.05178352290149       -0.01771758075200
H           -2.85140782993604        2.08643823347204       -0.95250250217339
H           -2.90208916518086        2.05081429238545        0.81473126764452
H           -1.20348230234294       -3.19161299368909        0.84722851013409
H           -1.19804907488190       -3.19714870053858       -0.94010528248965
H           -2.58898575910606       -2.54355574297529       -0.05127376382024
H            1.31898699411619       -2.93875160554927       -0.08824336839261
25
 energy: -2.875028005425 xtb: 6.6.1 (8d0f1dd)
C            3.31884043402810        1.18444232126457        0.15233682239268
N            2.33949362552076        0.11661010038949        0.10647881492377
C            2.60155859322092       -1.24951792255351        0.02460740419545
N            1.40370537116069       -1.93285383178210       -0.05773711033329
C            0.39263315609884       -1.04845435844986       -0.03502624809215
C            0.93297284704316        0.23716721126964        0.03313158337415
C            0.10410659287711        1.37714448639475       -0.02394709240897
O            0.45139257069739        2.55858773347477       -0.05415020364933
N           -1.28795867494362        1.02874978394544       -0.04165997757100
C           -2.24458203621363        2.12331904852703       -0.05005612949081
C           -1.84025306417012       -0.21251569169512       -0.04437199981983
O           -3.04026917089873       -0.40237049554179       -0.04500943501276
N           -0.95211909089183       -1.30343200047864       -0.05120191973216
C           -1.50527975273284       -2.64230330432705       -0.04632568096330
H            3.82659351938304        1.45963828354138        1.11028906980571
H            4.15737101211855        0.91813804909897       -0.49352976860571
H            2.82986368386643        2.08464677675050       -0.21151142220764
H            3.54939643840885       -1.71099303265767       -0.13817156372942
H           -1.67347043693156        3.04796280837948       -0.01740595945756
H           -2.85571611887056        2.08389897925839       -0.95297434406489
H           -2.90608748582920        2.04622078627225        0.81405746390140
H           -1.20752387206325       -3.18974006226657        0.85167343093942
H           -1.20542596277646       -3.20018451486035       -0.93618460467065
H           -2.59245329820822       -2.54044705905905       -0.04591987029341
H            1.31617931162439       -2.93620120707543       -0.10213814045385
25
 energy: -2.012781245469 xtb: 6.6.1 (8d0f1dd)
C            3.32885393468668        1.18680513617054        0.16134979966033
N            2.34268024399403        0.12028320352510        0.11614389079664
C            2.60233724637932       -1.24855536878515        0.03848237160683
N            1.40327986316647       -1.93007741316693       -0.06519540386441
C            0.39230156185344       -1.04636048964568       -0.03844250292093
C            0.93396560179102        0.23892933781483        0.03761779667047
C            0.10195128792648        1.37643516664448       -0.02630128521897
O            0.44527851349916        2.55837290886392       -0.06045297103146
N           -1.29082449829040        1.02648564688828       -0.04323802976247
C           -2.24861803812798        2.12021384525669       -0.05061114616321
C           -1.84260079131635       -0.21482235147551       -0.04334376856489
O           -3.04242083555167       -0.40605864453266       -0.03989176302211
N           -0.95296514572812       -1.30371198279803       -0.05401172718599
C           -1.50842085424425       -2.64220258047759       -0.04335280193208
H            3.83685746746672        1.49099907556475        1.11541203290995
H            4.17431232901327        0.90245891658326       -0.46838918692378
H            2.84842403966176        2.08189261753689       -0.22519287328192
H            3.54478368286272       -1.70741619636419       -0.16431109137794
H           -1.67840071489944        3.04499815827182       -0.01689117028308
H           -2.85974659980574        2.08169228840118       -0.95353437246129
H           -2.91008979028803        2.04188318923579        0.81335127609162
H           -1.21062178860986       -3.18785217180644        0.85576573757087
H           -1.21276159655830       -3.20354056279750       -0.93243932426577
H           -2.59552491448208       -2.53775575263126       -0.04057579708246
H            1.31466370947429       -2.93320882451018       -0.11561335068031
25
 energy: -1.100602395698 xtb: 6.6.1 (8d0f1dd)
C            3.33849349488208        1.18943348925401        0.17053221591144
N            2.34531344490776        0.12422900758512        0.12585528030399
C            2.60332507267209       -1.24722913954263        0.05179395513679
N            1.40347131578794       -1.92696084730593       -0.07251031792195
C            0.39223644972758       -1.04414875193028       -0.04175534247387
C            0.93459486717650        0.24088588217977        0.04193058671147
C            0.09898264969373        1.37601061768628       -0.02937170611082
O            0.43895575130824        2.55828797131529       -0.06697897504144
N           -1.29395404718221        1.02447683482969       -0.04510298491552
C           -2.25279595143326        2.11750431516424       -0.05144539323114
C           -1.84467929068790       -0.21718786710946       -0.04221809988752
O           -3.04422402300183       -0.41000053352497       -0.03436403861892
N           -0.95319742971215       -1.30402515791309       -0.05733164615151
C           -1.51100847916048       -2.64212437937989       -0.04005936838256
H            3.84519239141441        1.52299215640584        1.12116281050982
H            4.19071435496558        0.88679372141840       -0.44189197962574
H            2.86606535629956        2.07757177234895       -0.24054921809793
H            3.54056986131488       -1.69986350690704       -0.18880546188971
H           -1.68376417433004        3.04289956713864       -0.01675651076014
H           -2.86379781043726        2.07956815643944       -0.95443242168167
H           -2.91425926892642        2.03778037961338        0.81226950752120
H           -1.21312054673871       -3.18553099996575        0.86045614691302
H           -1.21978909617563       -3.20709931642403       -0.92828563818551
H           -2.59803186934749       -2.53506030583758       -0.03501478722078
H            1.31530367850302       -2.92987361364044       -0.12897810109137
25
 energy: -0.182754682786 xtb: 6.6.1 (8d0f1dd)
C            3.34702619219050        1.19252430501154        0.17994189820814
N            2.34706992280011        0.12865449611570        0.13614635446180
C            2.60453094426607       -1.24509871982710        0.06450545570285
N            1.40432083095837       -1.92303324215970       -0.07945363323057
C            0.39231371806620       -1.04141901281660       -0.04395744848482
C            0.93461750635683        0.24347952667236        0.04653685201763
C            0.09565323461111        1.37690086591877       -0.03140110524042
O            0.43260676532292        2.55920550984855       -0.07332678657790
N           -1.29714753359137        1.02305899710904       -0.04706637193030
C           -2.25721515722119        2.11519582337002       -0.05256714291616
C           -1.84640354772992       -0.21933707498602       -0.04102062468426
O           -3.04560556231883       -0.41385380401750       -0.02859346012037
N           -0.95276806096782       -1.30416429592759       -0.06095135982585
C           -1.51247616682156       -2.64209136317394       -0.03651960002378
H            3.85137459408719        1.55579742504921        1.12791213959103
H            4.20467044110093        0.87052649617553       -0.41466844722872
H            2.88076614207973        2.07165763378119       -0.25766324453653
H            3.53734775096326       -1.68794232535988       -0.21093603292068
H           -1.68979224004424        3.04156449181822       -0.01672367275054
H           -2.86779268188120        2.07749765727143       -0.95577800734719
H           -2.91856649624172        2.03376960321214        0.81098126481503
H           -1.21144222584330       -3.18306723548297        0.86417052977346
H           -1.22651698903579       -3.21064392919722       -0.92405741588553
H           -2.59949088824447       -2.53263294411203       -0.02853818903560
H            1.31747870100183       -2.92553625660379       -0.14151137781247
25
 energy: 0.660250792944 xtb: 6.6.1 (8d0f1dd)
C            3.35368693372949        1.19561932538483        0.18964508544011
N            2.34729133296461        0.13265420539008        0.14659776171094
C            2.60642505833608       -1.24310017175554        0.07700023441496
N            1.40562539702734       -1.91846335786671       -0.08499328212736
C            0.39263693565059       -1.03833760445301       -0.04490620167747
C            0.93448215346326        0.24630652000038        0.04797650880440
C            0.09261418651108        1.37897703905080       -0.03255480649008
O            0.42645553533099        2.56110167462194       -0.07949431864515
N           -1.30003512211015        1.02227890321853       -0.04901023562165
C           -2.26141298891855        2.11334008349406       -0.05294086377459
C           -1.84767131255189       -0.22124689735144       -0.03965951673729
O           -3.04645223131403       -0.41749577009374       -0.02239196711660
N           -0.95155558558099       -1.30389575796802       -0.06462525624510
C           -1.51023048380012       -2.64249807970219       -0.03681058989147
H            3.85321503133204        1.58905745987314        1.13645235442448
H            4.21487011287438        0.85223663071869       -0.38650814259144
H            2.89187587932762        2.06354709140695       -0.27671054669753
H            3.53407932543366       -1.67643125992659       -0.23357767557394
H           -1.69587807267136        3.04107125120798       -0.01569917911483
H           -2.87073059226100        2.07634572253879       -0.95652168300572
H           -2.92270665910155        2.02968072428530        0.81017590733399
H           -1.20631194575245       -3.18334377234448        0.86228882282015
H           -1.22874367328321       -3.21365982586666       -0.92305429476435
H           -2.59722470074636       -2.53264395117893       -0.02540225739416
H            1.32116024485270       -2.92086357271482       -0.13972140656950
25
 energy: 0.314964426355 xtb: 6.6.1 (8d0f1dd)
C            3.35217001630499        1.19351707282672        0.19325515137462
N            2.34390806603610        0.13271643669590        0.15311929076243
C            2.60800977676534       -1.24397084176733        0.08901818163969
N            1.40655579912838       -1.91683386981150       -0.08866580891587
C            0.39347642181680       -1.03734478654963       -0.04849036103827
C            0.93444379947276        0.24686484719200        0.04507955603693
C            0.09252349534827        1.38131808380121       -0.03162449712025
O            0.42713183735169        2.56304707175805       -0.07655102617487
N           -1.29958052242222        1.02334735231885       -0.04994249045976
C           -2.26106534047419        2.11406591405714       -0.04971576514262
C           -1.84683720001591       -0.22089057644994       -0.03884390140896
O           -3.04541363854533       -0.41769383068436       -0.01590333573121
N           -0.95018723252666       -1.30295030789017       -0.06861505716841
C           -1.50679470000067       -2.64244320357663       -0.04154901319369
H            3.83172631438975        1.60138334987065        1.14537116314587
H            4.21669668070305        0.83036736843863       -0.36309373588795
H            2.89452138222762        2.05521762166589       -0.29038729442597
H            3.52922133386540       -1.66779106719978       -0.25690352902356
H           -1.69644449188349        3.04232259221912       -0.01160032404169
H           -2.87041449290745        2.07846574005037       -0.95302190611586
H           -2.92103374079513        2.02978625792995        0.81429142713186
H           -1.20260290760596       -3.18301388404179        0.85766911304880
H           -1.22213542816071       -3.21200705778298       -0.92800274645519
H           -2.59384322721199       -2.53516583309852       -0.03056684204552
H            1.31937695322170       -2.92017882995729       -0.12634217251765
25
 energy: 8.167995962027 xtb: 6.6.1 (8d0f1dd)
C            3.35285729421288        1.19774737587967        0.20063454172243
N            2.34294228534342        0.12897966992550        0.13522897388420
C            2.60101865122906       -1.25077001469777        0.07515058946343
N            1.39890814880859       -1.92617861277372       -0.09005218719151
C            0.38716506975262       -1.04472173475510       -0.05344768593321
C            0.93043001274144        0.23911506560876        0.03346352055712
C            0.08879517262999        1.37447213080240       -0.03850219817308
O            0.42757113380193        2.55424413701625       -0.08238107008263
N           -1.30191033813231        1.02106612816772       -0.05185609438995
C           -2.26182912193828        2.11347970412357       -0.05072011733055
C           -1.85088523745982       -0.22337209311777       -0.03982762641538
O           -3.04967914933834       -0.41650206101933       -0.01692176887326
N           -0.95698064886321       -1.30689768847495       -0.06823083744028
C           -1.51517788539006       -2.64573100981948       -0.03997769463977
H            3.92326874179097        1.68854741626993        1.17146753669328
H            4.21760982533651        0.82513977260149       -0.34168396077910
H            2.88105776641409        2.05669707473055       -0.27032902407292
H            3.51902753997463       -1.67631426194722       -0.27515575373484
H           -1.69737451832381        3.04208883276213       -0.01179351299063
H           -2.87206132902421        2.07809730603649       -0.95381096547295
H           -2.92132737951566        2.02829338523869        0.81345690182074
H           -1.21148636052899       -3.18493665739730        0.86040802797882
H           -1.22993749130651       -3.21540311669048       -0.92628515054791
H           -2.60205495131980       -2.53756894003143       -0.02951060725912
H            1.31226707407756       -2.93054301969457       -0.12228992459836
