25
 energy: 0.000000000000 xtb: 6.6.1 (8d0f1dd)
C            3.23720132972391        1.16630909158653        0.08434468864950
N            2.29877796055224        0.07527476373246        0.03981602671198
C            2.58028186251803       -1.21425391179017        0.03006175752192
N            1.43813944744728       -1.93419254010258        0.00098261751768
C            0.39035684826767       -1.05887462812143       -0.00790371763344
C            0.93510047688824        0.21347817468824        0.01709077332874
C            0.09450143016486        1.40504290868848       -0.00410946993748
O            0.49712746915594        2.54126690785742       -0.00342325656480
N           -1.25076628431515        1.06271869620815       -0.03085477937476
C           -2.21907191394203        2.15522079838987       -0.05001256521996
C           -1.81739470187490       -0.20012724136556       -0.04692818139228
O           -2.99983858926755       -0.37846413507442       -0.07008877579474
N           -0.92618577614240       -1.30210203518959       -0.03682761236648
C           -1.46982251276835       -2.64643077634382       -0.06029819901142
H            3.71247229913541        1.21471443890471        1.06488839270555
H            4.00791460421487        1.03430799217987       -0.67357688121503
H            2.69909982127087        2.09770098766290       -0.09130154035862
H            3.56654087521359       -1.63682977417947        0.04233139674524
H           -1.67107945562430        3.09322822573871       -0.02552706696334
H           -2.82428927394145        2.09428605349656       -0.95318074103337
H           -2.87644002486466        2.07745706351925        0.81450059976605
H           -1.17061985538665       -3.19584861009707        0.83242224714061
H           -1.14560246782873       -3.17511580834413       -0.95688266944647
H           -2.55549768731684       -2.55659960601237       -0.07459039105944
H            1.38130842369251       -2.94313824728853       -0.01389874052104
25
 energy: -3.265015195602 xtb: 6.6.1 (8d0f1dd)
C            3.26975622932387        1.18014767716387        0.12300211376614
N            2.31476057440420        0.09435252339326        0.05571350610246
C            2.59384298040758       -1.23815568161386        0.01443001760530
N            1.41930553250531       -1.94442544605414       -0.01919748598084
C            0.38988604220333       -1.05976976958016       -0.01890593824956
C            0.93064907910743        0.21873350599453        0.00914212910533
C            0.09594960837833        1.38897462863423       -0.01667522840664
O            0.49068256696742        2.55474814556029       -0.01713464717755
N           -1.26735485143179        1.04515244137687       -0.03573471115506
C           -2.22830999072036        2.14192598924332       -0.04959380042667
C           -1.83208342430429       -0.20537469879932       -0.04683090999804
O           -3.02903810388122       -0.38674980232480       -0.06171863979386
N           -0.94279798740242       -1.30552659060380       -0.04114727915114
C           -1.48705146955083       -2.64685652772083       -0.05628867459036
H            3.82266310538483        1.37333950882062        1.09333859194029
H            4.04762074717779        1.00785468464374       -0.61674536880512
H            2.71937999920037        2.09127415776352       -0.11310513165097
H            3.56774355798858       -1.67183253986489        0.00417461234885
H           -1.66862890353808        3.07429943914491       -0.02273284672401
H           -2.83556211271284        2.09161994320140       -0.95303091222656
H           -2.88596748729721        2.06957004291887        0.81616801871083
H           -1.18398117000326       -3.19671818089753        0.83685886144060
H           -1.16597280337101       -3.18376046229927       -0.95093494374757
H           -2.57283723706089       -2.55490065221021       -0.06644965893734
H            1.34955982319767       -2.94889354714659       -0.03956776180394
25
 energy: 3.854675612690 xtb: 6.6.1 (8d0f1dd)
C            3.31048190188982        1.19379217932012        0.16700078866628
N            2.33610607430488        0.11332416560874        0.08893151683808
C            2.60083065174789       -1.25619784150743       -0.00510097300439
N            1.39944571375303       -1.94462889878726       -0.05014563257917
C            0.38930395655331       -1.05649613811914       -0.03468325284773
C            0.92938331852910        0.22732852103777        0.00976785269258
C            0.09705760091998        1.36793649245520       -0.02952239567813
O            0.46727893211101        2.55147060244418       -0.04094380986278
N           -1.28747334402840        1.02669290527463       -0.04201770106974
C           -2.24069968192277        2.12721680807790       -0.04986677527352
C           -1.84319015678131       -0.21255786175181       -0.04476874778448
O           -3.04526809106730       -0.39990093642463       -0.04665943771309
N           -0.95782648186069       -1.30678768750418       -0.04856303683833
C           -1.50686708197007       -2.64585684991224       -0.04927368082657
H            3.92582682890558        1.56591887654480        1.12973362757091
H            4.11782607679742        0.95404276956051       -0.52661557386894
H            2.75759970420491        2.08443628433820       -0.15473418643962
H            3.56024435519467       -1.70820489432373       -0.06118031838661
H           -1.66995729893168        3.05351853199043       -0.01865360063611
H           -2.85107728848010        2.08792941436722       -0.95265695084867
H           -2.89934293157911        2.05649763179565        0.81611348164735
H           -1.20390292358544       -3.19587170508136        0.84553968746665
H           -1.19813884229314       -3.19749926706621       -0.94088897094299
H           -2.59335046719859       -2.54947765891591       -0.05210019157965
H            1.31792377975956       -2.94759665467742       -0.08167780650675
25
 energy: 9.478887826439 xtb: 6.6.1 (8d0f1dd)
C            3.33946566198486        1.20165390519825        0.19145878139606
N            2.34794602949632        0.12402388301176        0.11023378601072
C            2.59972898733859       -1.25701301310872       -0.01591246344928
N            1.39391362893322       -1.93849240619618       -0.07581586569500
C            0.38832805982501       -1.05248678363066       -0.04482417090669
C            0.93058721749019        0.23426977669988        0.01618422150893
C            0.09347764751718        1.36460089976864       -0.03674828909365
O            0.44397682092495        2.55142829593021       -0.06368066576775
N           -1.30011079967800        1.02019822712527       -0.04739248195208
C           -2.25300644633352        2.11836495415484       -0.05133382451288
C           -1.84978666478934       -0.21907870445203       -0.04127554989753
O           -3.05151255820833       -0.41218688926017       -0.03210811861991
N           -0.96235110976430       -1.30774336009693       -0.05375680722549
C           -1.51779945442616       -2.64560929821444       -0.04068256690469
H            3.95675327554852        1.66013138133065        1.15933963531514
H            4.18282639257172        0.90241067091150       -0.44329846417874
H            2.81014321148197        2.08346149667223       -0.19564221025200
H            3.55176643807872       -1.72184213272043       -0.12170765462851
H           -1.68012435169094        3.04260491976554       -0.01681122886775
H           -2.86448737952996        2.08245390446175       -0.95359528708046
H           -2.91160976124552        2.04310794580408        0.81452307211819
H           -1.21648879237441       -3.19221448279854        0.85688961301355
H           -1.22330442103143       -3.20885428362027       -0.93000295420852
H           -2.60475944565494       -2.54211094710782       -0.03630218483801
H            1.30864211850816       -2.94204917088441       -0.12070440908910
25
 energy: 11.059243220098 xtb: 6.6.1 (8d0f1dd)
C            3.35378431409597        1.20249522442742        0.20025658919027
N            2.35088393242195        0.12836921641655        0.11940529511630
C            2.59654677849899       -1.25065648495349       -0.01663706243821
N            1.39540695911303       -1.93189160737975       -0.08966199150118
C            0.38673423546224       -1.04922796596355       -0.04837219201577
C            0.93060099748680        0.23807858593763        0.02487735771795
C            0.09020460429706        1.36854401550894       -0.03894248768327
O            0.43037085168809        2.55262269655841       -0.07748281708789
N           -1.30541904981952        1.01947452219306       -0.05089815422454
C           -2.26093336348439        2.11437104718196       -0.05301861222205
C           -1.85298765992365       -0.22273508206272       -0.03892616589800
O           -3.05310480413072       -0.41788515937403       -0.02291683251746
N           -0.96237459471998       -1.30843393250640       -0.05686545700412
C           -1.52116175903533       -2.64608254746171       -0.03517236525752
H            3.96014630798499        1.68752538216062        1.17411066480446
H            4.21400095190838        0.86952472440253       -0.38974633977902
H            2.85123764062182        2.07825090646039       -0.22165241195002
H            3.54413616569646       -1.71860603675805       -0.16364254757997
H           -1.69102592450156        3.03972490538952       -0.01633314340899
H           -2.87197621376691        2.07878360133500       -0.95549832802208
H           -2.92013609126182        2.03421871615400        0.81201987503801
H           -1.22031560213709       -3.18908387459820        0.86429806960864
H           -1.23487272509913       -3.21475039889624       -0.92291636587424
H           -2.60820216892830       -2.53767773715383       -0.02694438417567
H            1.31067052250522       -2.93592392827403       -0.14230628064102
25
 energy: 10.721132464955 xtb: 6.6.1 (8d0f1dd)
C            3.35826305063552        1.20043957123396        0.20094967219859
N            2.34959770808506        0.12959693682825        0.12389937635887
C            2.59409969832738       -1.24325292585488       -0.00882926810963
N            1.39855838054861       -1.92630054287638       -0.09550109125362
C            0.38517446782656       -1.04664476093673       -0.04861694074676
C            0.92956427814419        0.23998702959857        0.03357905496508
C            0.08912634860135        1.37324742978367       -0.03844978056434
O            0.42474970276063        2.55415829101391       -0.08396463358095
N           -1.30605160191684        1.01996340127763       -0.05224704265371
C           -2.26421268907947        2.11274438102254       -0.05315951829474
C           -1.85391294621378       -0.22418107264853       -0.03778310762425
O           -3.05267634240477       -0.41866777057546       -0.01770695077589
N           -0.96113349851435       -1.30871905137051       -0.05945550019473
C           -1.52054221064580       -2.64668033188971       -0.03372265601477
H            3.94994195519169        1.69072736147508        1.17996092397401
H            4.22272447345081        0.84528578906271       -0.35763005610980
H            2.87600434230564        2.06932211280068       -0.24526561243310
H            3.53799890421181       -1.70781660941393       -0.19080270138691
H           -1.69794104458116        3.04006536365298       -0.01484003058281
H           -2.87443587575549        2.07743099910135       -0.95625957390687
H           -2.92429297245472        2.02922257799912        0.81092895194981
H           -1.21892846284108       -3.18739391499856        0.86641634063833
H           -1.23708524252611       -3.21653574625018       -0.92062925652692
H           -2.60747568644175       -2.53651158575238       -0.02401582857729
H            1.31509956825867       -2.93045814353918       -0.14982085855300
25
 energy: 9.955838999295 xtb: 6.6.1 (8d0f1dd)
C            3.35683937480744        1.19901534388615        0.19845519846902
N            2.34715560177483        0.13003377814898        0.12618498535674
C            2.59374240238287       -1.23977104974574        0.00190775196497
N            1.39993287593166       -1.92378004435983       -0.09603385211316
C            0.38447585340855       -1.04529515396595       -0.04804418854930
C            0.92808264887267        0.24080493402682        0.03813490600725
C            0.08943858854854        1.37541707714218       -0.03732700456295
O            0.42450790105624        2.55580530659157       -0.08478671713948
N           -1.30513028222250        1.02007013054910       -0.05167428157834
C           -2.26416655550068        2.11254818280704       -0.05192450717800
C           -1.85369790315922       -0.22408672985187       -0.03753893968599
O           -3.05215690349082       -0.41762560250072       -0.01612042968804
N           -0.96039904569747       -1.30862757126431       -0.06131756817143
C           -1.51867838919712       -2.64702093105133       -0.03518944254085
H            3.93713607179651        1.68930310035892        1.17956856228450
H            4.22255152320419        0.83039319206095       -0.34435973575111
H            2.88410260156613        2.06315495075996       -0.26255041943232
H            3.53521330121173       -1.69895432961002       -0.20388460775349
H           -1.69916286346221        3.04076687682645       -0.01289897773590
H           -2.87393249307099        2.07775445984869       -0.95544166443840
H           -2.92453092780081        2.02809700660729        0.81181424345008
H           -1.21586493184060       -3.18729821375601        0.86472255285276
H           -1.23440692432553       -3.21607183642064       -0.92211435218941
H           -2.60553436664685       -2.53769112766011       -0.02529449674212
H            1.31669714682609       -2.92791296068355       -0.14725310294048
25
 energy: 9.237425343429 xtb: 6.6.1 (8d0f1dd)
C            3.35457182155696        1.19807425621908        0.19610429379458
N            2.34475299330829        0.13051828878137        0.12885890903537
C            2.59450149092919       -1.23906817808822        0.01530675803365
N            1.40018059833219       -1.92284665178888       -0.09530508370578
C            0.38440740153239       -1.04455041049671       -0.04772666651559
C            0.92674192959571        0.24129509062265        0.04054301619564
C            0.08972867801758        1.37623406902852       -0.03658319603947
O            0.42548964412146        2.55698926643936       -0.08367350723280
N           -1.30447497983650        1.02009726009411       -0.05077497666529
C           -2.26356302280316        2.11285969398224       -0.05068744511606
C           -1.85325998272107       -0.22355279842757       -0.03771197743149
O           -3.05177903108605       -0.41690018795689       -0.01601091211313
N           -0.95991121452977       -1.30836125753737       -0.06306026270353
C           -1.51688526011693       -2.64710175643265       -0.03723936270075
H            3.92705056900021        1.68869160039095        1.17599605061243
H            4.22048439973610        0.82150511268298       -0.33729941177066
H            2.88762285437698        2.05824825969708       -0.27430676983796
H            3.53353645138095       -1.69207243231999       -0.21581108362461
H           -1.69848325392220        3.04119846196834       -0.01150202114776
H           -2.87311301558108        2.07842186043805       -0.95437594986975
H           -2.92381619305752        2.02841155853581        0.81304726861056
H           -1.21307803508958       -3.18749331317072        0.86237120167059
H           -1.23113821702933       -3.21535730646024       -0.92439459763036
H           -2.60372695998181       -2.53917169540131       -0.02737179827984
H            1.31637463883965       -2.92704000205595       -0.14135856337339
25
 energy: 8.514319395859 xtb: 6.6.1 (8d0f1dd)
C            3.35243464461768        1.19744604784790        0.19455491717672
N            2.34236525156068        0.13108968008748        0.13268246499593
C            2.59630084877891       -1.24069121914960        0.03511964550016
N            1.39992849855207       -1.92292099014731       -0.09435462521417
C            0.38501367490243       -1.04420099674984       -0.04841069433429
C            0.92584946207651        0.24147577646718        0.04095804528640
C            0.08965777259576        1.37629541470449       -0.03628747361101
O            0.42679417859073        2.55752091443646       -0.08118857202550
N           -1.30417173341525        1.02030409941427       -0.04982679841106
C           -2.26298816602778        2.11351758023766       -0.04916851993678
C           -1.85262668353252       -0.22282680338742       -0.03833061689749
O           -3.05133261324875       -0.41679810173144       -0.01663193290767
N           -0.95922223428410       -1.30791311884987       -0.06541824701783
C           -1.51513408513984       -2.64688120217671       -0.03977550309088
H            3.91734465829495        1.69065537387857        1.17083701288387
H            4.21927423799025        0.81399856647406       -0.33160656043086
H            2.88961891696257        2.05366238603254       -0.28602199411279
H            3.53135918516245       -1.68508796305631       -0.23176336498307
H           -1.69720696211570        3.04155481108228       -0.01005629670081
H           -2.87265844434995        2.07932908150832       -0.95272740977655
H           -2.92274247426314        2.02928986719253        0.81486241485544
H           -1.21050760842757       -3.18755666056352        0.85956663143126
H           -1.22808740430715       -3.21458184633135       -0.92721012286298
H           -2.60201077789636       -2.54037283747413       -0.02982564016207
H            1.31496216189575       -2.92727907100225       -0.13294284745943
25
 energy: 7.987596200808 xtb: 6.6.1 (8d0f1dd)
C            3.35150887388677        1.19714690985385        0.19482019642655
N            2.34096438617692        0.13118759667706        0.13589247362106
C            2.59864418795145       -1.24450315815691        0.05593255737503
N            1.39946373979704       -1.92408602347724       -0.09345984182416
C            0.38619552248397       -1.04444006529113       -0.05032911558295
C            0.92626571064790        0.24096992808119        0.03859676505469
C            0.08911557656224        1.37562719828740       -0.03641095919274
O            0.42780242796705        2.55687559293606       -0.07867627888457
N           -1.30403652191892        1.02076390682423       -0.04943823902256
C           -2.26261803410942        2.11421703373751       -0.04833433393149
C           -1.85188204414445       -0.22228163132419       -0.03926967093482
O           -3.05071236691090       -0.41731453133685       -0.01779634590189
N           -0.95827569415855       -1.30737170762643       -0.06765268548578
C           -1.51412874136672       -2.64633645281533       -0.04162168707469
H            3.91292610884585        1.69245005650111        1.16546467037175
H            4.21810513840999        0.81316781700727       -0.33092731181390
H            2.88925411763329        2.05087595630434       -0.28963721627667
H            3.52822415354950       -1.67958057977360       -0.24802705684233
H           -1.69617693943045        3.04185253920916       -0.00948546661099
H           -2.87270868777444        2.07988199776331       -0.95150699101618
H           -2.92175836504765        2.03020033427368        0.81612414567694
H           -1.20929043778598       -3.18707032904226        0.85773460295059
H           -1.22682139707276       -3.21417669681119       -0.92909271923447
H           -2.60106122529460       -2.54040418211953       -0.03143160435453
H            1.31321481607554       -2.92862272093750       -0.12443397529736
25
 energy: 7.901007813646 xtb: 6.6.1 (8d0f1dd)
C            3.35212343758876        1.19745917894594        0.19709844207153
N            2.34117031536321        0.13073908026191        0.13707733497501
C            2.60038261551167       -1.24842527426093        0.06853875562046
N            1.39912939641430       -1.92555669468066       -0.09293873983352
C            0.38726811768175       -1.04497323047180       -0.05259533526334
C            0.92790913860000        0.24004137719426        0.03480888974242
C            0.08848274017155        1.37471216178199       -0.03681101412155
O            0.42794061108203        2.55545275088825       -0.07772752643819
N           -1.30379462782157        1.02119186809520       -0.04983331649591
C           -2.26251140158691        2.11443959175137       -0.04838277961469
C           -1.85133805246657       -0.22229644095473       -0.04002263137859
O           -3.05017678857069       -0.41787977068401       -0.01852056481276
N           -0.95745158405228       -1.30697414058117       -0.06882284597071
C           -1.51426059858171       -2.64577863365024       -0.04197447668389
H            3.91434042995442        1.69401744934309        1.16412837905767
H            4.21876630827931        0.81649242049339       -0.33411040046436
H            2.88671452959883        2.05157032049007       -0.28635470851040
H            3.52482431916299       -1.67728228840532       -0.25890399106578
H           -1.69617525950896        3.04202482891460       -0.00971455584291
H           -2.87307416782352        2.07970559023890       -0.95116715021290
H           -2.92131571059179        2.03025464326052        0.81634921656646
H           -1.20982245577057       -3.18620798815726        0.85766977597708
H           -1.22787185220891       -3.21432211404923       -0.92916554850046
H           -2.60122433857132       -2.53922866863490       -0.03147391884144
H            1.31217918311858       -2.93014722838527       -0.12011737776467
25
 energy: 8.070799281213 xtb: 6.6.1 (8d0f1dd)
C            3.35333084273989        1.19784704690342        0.19996591590863
N            2.34224876190115        0.12990192448120        0.13676542171665
C            2.60099132599553       -1.25083638112145        0.07201395261299
N            1.39899189175238       -1.92652750528476       -0.09211351464427
C            0.38768461426076       -1.04532593679139       -0.05367586605779
C            0.92978570903297        0.23919005740611        0.03239300956930
C            0.08816366781987        1.37411987469794       -0.03723320160792
O            0.42755885871927        2.55417630547098       -0.07884046421936
N           -1.30320897721970        1.02138013947498       -0.05082918860349
C           -2.26241547635076        2.11413885198649       -0.04958999837068
C           -1.85108182579471       -0.22274033555429       -0.04029214241673
O           -3.04983222182119       -0.41787775586220       -0.01863764958395
N           -0.95702299655777       -1.30680041514490       -0.06864003571028
C           -1.51503173772262       -2.64547575919654       -0.04096126168444
H            3.92014554142054        1.69255691972614        1.16583235022921
H            4.21849278583177        0.82313454448473       -0.33962640483590
H            2.88356588514485        2.05413047512308       -0.27645345613294
H            3.52224710918277       -1.67749343618934       -0.26591521159282
H           -1.69687791825863        3.04208291509555       -0.01100674295163
H           -2.87310157315070        2.07882802866062       -0.95228382496118
H           -2.92139122407716        2.02962792591107        0.81505569803457
H           -1.21129249152040       -3.18529919027447        0.85915263358094
H           -1.22977427743494       -3.21487899549026       -0.92763901865230
H           -2.60197971469820       -2.53776638561891       -0.03037507543198
H            1.31201774577766       -2.93106412414986       -0.12003201200005
25
 energy: 8.175021732385 xtb: 6.6.1 (8d0f1dd)
C            3.35377301021461        1.19804372353491        0.20128324868230
N            2.34284971802447        0.12942794570927        0.13649567183830
C            2.60093103781879       -1.25114046673672        0.07290454546005
N            1.39902463952817       -1.92651251713410       -0.09146237040200
C            0.38751666589978       -1.04517607917472       -0.05375647113530
C            0.93054622611306        0.23898309145706        0.03233397337829
C            0.08828533784105        1.37416025581072       -0.03768618774103
O            0.42727898411974        2.55391254491075       -0.08045360570270
N           -1.30261939467438        1.02129832732705       -0.05149763331119
C           -2.26227351237582        2.11372952572645       -0.05030757760386
C           -1.85104803821981       -0.22313104225568       -0.04016535327449
O           -3.04976962916609       -0.41738675352056       -0.01799149922632
N           -0.95696195359802       -1.30680497771221       -0.06836828542086
C           -1.51539856385684       -2.64551411016688       -0.04022236691560
H            3.92254111613849        1.69131265635455        1.16866515165514
H            4.21874814722221        0.82468461788366       -0.34115136043687
H            2.88226575994006        2.05581698703805       -0.27260237118788
H            3.52082392260536       -1.67743384881153       -0.27067690053955
H           -1.69747003333652        3.04208496375578       -0.01162543493782
H           -2.87283321934519        2.07821848643316       -0.95312837915414
H           -2.92152004923251        2.02884400075132        0.81413346722564
H           -1.21188959080508       -3.18491197320212        0.86013312119592
H           -1.23055817609115       -3.21525413785752       -0.92660453894504
H           -2.60231358732516       -2.53723006932221       -0.02964351993498
H            1.31228548753340       -2.93099236205450       -0.12157141137145
25
 energy: 8.205628842827 xtb: 6.6.1 (8d0f1dd)
C            3.35337147712581        1.19790277574283        0.20129330798288
N            2.34324005639182        0.12883707970107        0.13509116673394
C            2.60082824095885       -1.25084668263769        0.07281123342899
N            1.39902097089982       -1.92629008786597       -0.09056653657757
C            0.38716548651015       -1.04485263892007       -0.05365678121550
C            0.93082916821013        0.23894341648099        0.03284176413273
C            0.08872722407149        1.37436524627371       -0.03843826237704
O            0.42745363074744        2.55401738494679       -0.08244250041597
N           -1.30183083259606        1.02109986372199       -0.05203325716826
C           -2.26185455690801        2.11337983622268       -0.05095542168628
C           -1.85094784677519       -0.22344554970914       -0.03985414873683
O           -3.04970485048286       -0.41650838132897       -0.01700300704347
N           -0.95700477429030       -1.30688532426389       -0.06802594362087
C           -1.51547287826869       -2.64569472059781       -0.03960286089671
H            3.92460139318922        1.68781234420142        1.17123841730080
H            4.21739577419236        0.82708063957497       -0.34328873978313
H            2.88062400168843        2.05719967094257       -0.26774430885990
H            3.51924072035972       -1.67699385406266       -0.27258628377419
H           -1.69760854691369        3.04209212560267       -0.01215659368565
H           -2.87216141085060        2.07781321775791       -0.95400241917559
H           -2.92138495227426        2.02821467403982        0.81323597031619
H           -1.21192924609356       -3.18476817620071        0.86087802547230
H           -1.23056055252735       -3.21553259683420       -0.92581786478122
H           -2.60234952214589       -2.53723259097481       -0.02908244963882
H            1.31252613075389       -2.93067888306948       -0.12309859373624
25
 energy: 8.167995962027 xtb: 6.6.1 (8d0f1dd)
C            3.35285729421288        1.19774737587967        0.20063454172243
N            2.34294228534342        0.12897966992550        0.13522897388420
C            2.60101865122906       -1.25077001469777        0.07515058946343
N            1.39890814880859       -1.92617861277372       -0.09005218719151
C            0.38716506975262       -1.04472173475510       -0.05344768593321
C            0.93043001274144        0.23911506560876        0.03346352055712
C            0.08879517262999        1.37447213080240       -0.03850219817308
O            0.42757113380193        2.55424413701625       -0.08238107008263
N           -1.30191033813231        1.02106612816772       -0.05185609438995
C           -2.26182912193828        2.11347970412357       -0.05072011733055
C           -1.85088523745982       -0.22337209311777       -0.03982762641538
O           -3.04967914933834       -0.41650206101933       -0.01692176887326
N           -0.95698064886321       -1.30689768847495       -0.06823083744028
C           -1.51517788539006       -2.64573100981948       -0.03997769463977
H            3.92326874179097        1.68854741626993        1.17146753669328
H            4.21760982533651        0.82513977260149       -0.34168396077910
H            2.88105776641409        2.05669707473055       -0.27032902407292
H            3.51902753997463       -1.67631426194722       -0.27515575373484
H           -1.69737451832381        3.04208883276213       -0.01179351299063
H           -2.87206132902421        2.07809730603649       -0.95381096547295
H           -2.92132737951566        2.02829338523869        0.81345690182074
H           -1.21148636052899       -3.18493665739730        0.86040802797882
H           -1.22993749130651       -3.21540311669048       -0.92628515054791
H           -2.60205495131980       -2.53756894003143       -0.02951060725912
H            1.31226707407756       -2.93054301969457       -0.12228992459836
