25
 energy: 0.000000000000 xtb: 6.6.1 (8d0f1dd)
C            3.23720163006194        1.16630919979326        0.08434469647475
N            2.29877817382611        0.07527477071623        0.03981603040599
C            2.58028210190900       -1.21425402444508        0.03006176031096
N            1.43813958087363       -1.93419271955128        0.00098261760884
C            0.39035688448383       -1.05887472636071       -0.00790371836672
C            0.93510056364412        0.21347819449412        0.01709077491437
C            0.09450143893243        1.40504303904423       -0.00410947031874
O            0.49712751527797        2.54126714362870       -0.00342325688240
N           -1.25076640035757        1.06271879480407       -0.03085478223738
C           -2.21907211982101        2.15522099834493       -0.05001256985998
C           -1.81739487048744       -0.20012725993278       -0.04692818574614
O           -2.99983886758376       -0.37846417018721       -0.07008878229737
N           -0.92618586207120       -1.30210215599479       -0.03682761578324
C           -1.46982264913417       -2.64643102187190       -0.06029820460571
H            3.71247264356769        1.21471455160235        1.06488849150277
H            4.00791497605742        1.03430808813993       -0.67357694370751
H            2.69910007168542        2.09770118228144       -0.09130154882931
H            3.56654120610678       -1.63682992603973        0.04233140067262
H           -1.67107961066214        3.09322851271934       -0.02552706933167
H           -2.82428953597071        2.09428624779827       -0.95318082946668
H           -2.87644029173232        2.07745725625962        0.81450067533302
H           -1.17061996399332       -3.19584890659852        0.83242232437030
H           -1.14560257411436       -3.17511610292205       -0.95688275822323
H           -2.55549792440841       -2.55659984320617       -0.07459039797972
H            1.38130855184625       -2.94313852034425       -0.01389874181052
25
 energy: -3.264987098036 xtb: 6.6.1 (8d0f1dd)
C            3.26975653268225        1.18014778665451        0.12300212517791
N            2.31476078916089        0.09435253214701        0.05571351127140
C            2.59384322105671       -1.23815579648631        0.01443001894407
N            1.41930566418431       -1.94442562645222       -0.01919748776193
C            0.38988607837581       -1.05976986790249       -0.01890594000360
C            0.93064916545032        0.21873352628798        0.00914212995351
C            0.09594961728025        1.38897475749922       -0.01667522995372
O            0.49068261249151        2.55474838258232       -0.01713464876725
N           -1.26735496901325        1.04515253834304       -0.03573471447042
C           -2.22831019745642        2.14192618796492       -0.04959380502784
C           -1.83208359427961       -0.20537471785338       -0.04683091434287
O           -3.02903838490648       -0.38674983820631       -0.06171864551993
N           -0.94279807487245       -1.30552671172672       -0.04114728296866
C           -1.48705160751510       -2.64685677328841       -0.05628867981266
H            3.82266346004029        1.37333963623503        1.09333869337703
H            4.04762112270416        1.00785477814954       -0.61674542602494
H            2.71938025149646        2.09127435178579       -0.11310514214453
H            3.56774388899335       -1.67183269497260        0.00417461273616
H           -1.66862905834857        3.07429972436938       -0.02273284883310
H           -2.83556237578797        2.09162013725576       -0.95303100064597
H           -2.88596775504880        2.06957023492750        0.81616809443250
H           -1.18398127984956       -3.19671847747965        0.83685893908191
H           -1.16597291154654       -3.18376075767922       -0.95093503197252
H           -2.57283747576117       -2.55490088924639       -0.06644966510234
H            1.34955994840587       -2.94889382073627       -0.03956776547492
25
 energy: 3.854721363985 xtb: 6.6.1 (8d0f1dd)
C            3.31048220902661        1.19379229007665        0.16700080416012
N            2.33610629104194        0.11332417612262        0.08893152508888
C            2.60083089304532       -1.25619795805378       -0.00510097347764
N            1.39944584358949       -1.94462907920422       -0.05014563723153
C            0.38930399267179       -1.05649623613775       -0.03468325606554
C            0.92938340475455        0.22732854212864        0.00976785359881
C            0.09705760992470        1.36793661936833       -0.02952239841713
O            0.46727897546378        2.55147083916213       -0.04094381366143
N           -1.28747346347640        1.02669300052818       -0.04201770496802
C           -2.24069988980831        2.12721700543483       -0.04986677990001
C           -1.84319032778708       -0.21255788147230       -0.04476875193799
O           -3.04526837359833       -0.39990097352626       -0.04665944204202
N           -0.95782657072502       -1.30678780874410       -0.04856304134387
C           -1.50686722177277       -2.64585709538707       -0.04927368539804
H            3.92582719313226        1.56591902182615        1.12973373238428
H            4.11782645883723        0.95404285807380       -0.52661562272679
H            2.75759996004691        2.08443647772608       -0.15473420079540
H            3.56024468550369       -1.70820505280596       -0.06118032406274
H           -1.66995745386541        3.05351881528691       -0.01865360236674
H           -2.85107755299468        2.08792960807918       -0.95265703923338
H           -2.89934320057163        2.05649782259146        0.81611355736396
H           -1.20390303528002       -3.19587200158495        0.84553976591334
H           -1.19813895345294       -3.19749956372080       -0.94088905823591
H           -2.59335070780203       -2.54947789544896       -0.05210019641335
H            1.31792390203266       -2.94759692814678       -0.08167781408458
25
 energy: 9.478940349558 xtb: 6.6.1 (8d0f1dd)
C            3.33946597181068        1.20165401668417        0.19145879915904
N            2.34794624733186        0.12402389451833        0.11023379623789
C            2.59972922853381       -1.25701312973070       -0.01591246492559
N            1.39391375825643       -1.93849258604381       -0.07581587272897
C            0.38832809585295       -1.05248688127729       -0.04482417506534
C            0.93058730382734        0.23426979843474        0.01618422301045
C            0.09347765618976        1.36460102637230       -0.03674829250305
O            0.44397686211582        2.55142853264423       -0.06368067167586
N           -1.30011092029846        1.02019832177627       -0.04739248634902
C           -2.25300665536084        2.11836515069052       -0.05133382927548
C           -1.84978683640711       -0.21907872477751       -0.04127555372695
O           -3.05151284131870       -0.41218692750166       -0.03210812159881
N           -0.96235119904841       -1.30774348142552       -0.05375681221289
C           -1.51779959524314       -2.64560954366630       -0.04068257067910
H            3.95675364264447        1.66013153535276        1.15933974287527
H            4.18282678064207        0.90241075463451       -0.44329850530667
H            2.81014347219880        2.08346168996967       -0.19564222840311
H            3.55176676760118       -1.72184229246789       -0.12170766592019
H           -1.68012450756794        3.04260520204949       -0.01681123042745
H           -2.86448764528869        2.08245409766571       -0.95359537555223
H           -2.91161003137612        2.04310813535764        0.81452314768725
H           -1.21648890523667       -3.19221477896282        0.85688969251325
H           -1.22330453452602       -3.20885458132835       -0.93000304049146
H           -2.60475968731687       -2.54211118295741       -0.03630218820602
H            1.30864223992013       -2.94204944383909       -0.12070442028770
25
 energy: 11.059295730358 xtb: 6.6.1 (8d0f1dd)
C            3.35378462525023        1.20249533599140        0.20025660776949
N            2.35088415053006        0.12836922832627        0.11940530619437
C            2.59654701939897       -1.25065660098573       -0.01663706398175
N            1.39540708857479       -1.93189178661498       -0.08966199981976
C            0.38673427134231       -1.04922806330784       -0.04837219650360
C            0.93060108382523        0.23807860802586        0.02487736002600
C            0.09020461266598        1.36854414247843       -0.03894249129624
O            0.43037089161663        2.55262293338325       -0.07748282427652
N           -1.30541917093247        1.01947461677691       -0.05089815894672
C           -2.26093357324715        2.11437124334710       -0.05301861714096
C           -1.85298783183840       -0.22273510272743       -0.03892616950946
O           -3.05310508738882       -0.41788519814419       -0.02291683464362
N           -0.96237468400627       -1.30843405389906       -0.05686546227993
C           -1.52116190016425       -2.64608279295748       -0.03517236852071
H            3.96014667539573        1.68752553872427        1.17411077373500
H            4.21400134287101        0.86952480507448       -0.38974637593854
H            2.85123790515127        2.07825109927441       -0.22165243251428
H            3.54413649451101       -1.71860619620527       -0.16364256276224
H           -1.69102608138998        3.03972518740627       -0.01633314492433
H           -2.87197648022043        2.07878379419844       -0.95549841667041
H           -2.92013636218347        2.03421890488284        0.81201995037483
H           -1.22031571535439       -3.18908417047204        0.86429814979568
H           -1.23487283966699       -3.21475069715134       -0.92291645149971
H           -2.60820241090964       -2.53767797259212       -0.02694438667549
H            1.31067064410538       -2.93592420066043       -0.14230629384378
25
 energy: 10.721182286030 xtb: 6.6.1 (8d0f1dd)
C            3.35826336220530        1.20043968260722        0.20094969084211
N            2.34959792607384        0.12959694885187        0.12389938785389
C            2.59409993900033       -1.24325304120024       -0.00882926892878
N            1.39855851030275       -1.92630072159289       -0.09550110011393
C            0.38517450356192       -1.04664485804136       -0.04861694525730
C            0.92956436438643        0.23998705186386        0.03357905808045
C            0.08912635687023        1.37324755718953       -0.03844978413160
O            0.42474974216766        2.55415852798122       -0.08396464137094
N           -1.30605172308847        1.01996349590684       -0.05224704750104
C           -2.26421289914647        2.11274457703676       -0.05315952322672
C           -1.85391311821438       -0.22418109344739       -0.03778311112966
O           -3.05267662562312       -0.41866780941823       -0.01770695241869
N           -0.96113358768549       -1.30871917278962       -0.05945550571084
C           -1.52054235171724       -2.64668057744094       -0.03372265914346
H            3.94994232165570        1.69072751833580        1.17996103344732
H            4.22272486522279        0.84528586748584       -0.35763008928967
H            2.87600460913288        2.06932230478631       -0.24526563518812
H            3.53799923245696       -1.70781676786014       -0.19080271908902
H           -1.69794120211114        3.04006564570132       -0.01484003195962
H           -2.87443614243721        2.07743119183930       -0.95625966262582
H           -2.92429324376203        2.02922276626443        0.81092902718542
H           -1.21892857592968       -3.18739421071561        0.86641642102189
H           -1.23708535729925       -3.21653604467092       -0.92062934194020
H           -2.60747592835569       -2.53651182108248       -0.02401583080541
H            1.31509969026975       -2.93045841541848       -0.14982087245294
25
 energy: 9.955887214070 xtb: 6.6.1 (8d0f1dd)
C            3.35683968624514        1.19901545512727        0.19845521688111
N            2.34715581953703        0.13003379021313        0.12618499706381
C            2.59374264302267       -1.23977116476806        0.00190775214197
N            1.39993300581332       -1.92378022284249       -0.09603386102290
C            0.38447588907909       -1.04529525094536       -0.04804419300670
C            0.92808273497745        0.24080495636799        0.03813490954529
C            0.08943859684639        1.37541720474934       -0.03732700802604
O            0.42450794044084        2.55580554371168       -0.08478672500574
N           -1.30513040330865        1.02007022518821       -0.05167428637253
C           -2.26416676556340        2.11254837880306       -0.05192451199540
C           -1.85369807513987       -0.22408675064198       -0.03753894316874
O           -3.05215718666097       -0.41762564124680       -0.01612043118365
N           -0.96039913480047       -1.30862769267493       -0.06131757386029
C           -1.51867853009564       -2.64702117663416       -0.03518944580562
H            3.93713643707243        1.68930325708750        1.17956867172141
H            4.22255191496012        0.83039326910239       -0.34435976769979
H            2.88410286914470        2.06315514217342       -0.26255044379098
H            3.53521362919844       -1.69895448723401       -0.20388462666931
H           -1.69916302110555        3.04076715893987       -0.01289897893263
H           -2.87393275970601        2.07775465261665       -0.95544175308147
H           -2.92453119913020        2.02809719476817        0.81181431876782
H           -1.21586504464498       -3.18729850946418        0.86472263307918
H           -1.23440703885018       -3.21607213479834       -0.92211443774047
H           -2.60553460838068       -2.53769136309964       -0.02529449908887
H            1.31669726898538       -2.92791323232672       -0.14725311660219
25
 energy: 9.237472727228 xtb: 6.6.1 (8d0f1dd)
C            3.35457213278428        1.19807436737289        0.19610431198856
N            2.34475321084759        0.13051830089047        0.12885892099052
C            2.59450173163942       -1.23906829304533        0.01530675945377
N            1.40018072823683       -1.92284683018495       -0.09530509254791
C            0.38440743719658       -1.04455050740703       -0.04772667094353
C            0.92674201557610        0.24129511300930        0.04054301995710
C            0.08972868634234        1.37623419671148       -0.03658319943355
O            0.42548968359714        2.55698950366931       -0.08367351499578
N           -1.30447510086186        1.02009735473574       -0.05077498137604
C           -2.26356323280989        2.11285989000716       -0.05068744981869
C           -1.85326015466109       -0.22355281916814       -0.03771198093030
O           -3.05177931422115       -0.41690022663567       -0.01601091359858
N           -0.95991130358751       -1.30836137892329       -0.06306026855408
C           -1.51688540084909       -2.64710200202298       -0.03723936615571
H            3.92705093334043        1.68869175706280        1.17599615971789
H            4.22048479130025        0.82150518889981       -0.33729944306431
H            2.88762312228215        2.05824845065531       -0.27430679528734
H            3.53353677921208       -1.69207258930550       -0.21581110364693
H           -1.69848341150249        3.04119874412180       -0.01150202221488
H           -2.87311328214007        2.07842205326793       -0.95437603841395
H           -2.92381646432060        2.02841174672588        0.81304734404270
H           -1.21307814763540       -3.18749360889699        0.86237128167886
H           -1.23113833125072       -3.21535760477165       -0.92439468339298
H           -2.60372720154795       -2.53917193097820       -0.02737180081932
H            1.31637476096902       -2.92704027361813       -0.14135857648822
25
 energy: 8.514366640983 xtb: 6.6.1 (8d0f1dd)
C            3.35243495564672        1.19744615894343        0.19455493522695
N            2.34236546887845        0.13108969224960        0.13268247730582
C            2.59630108965608       -1.24069133425729        0.03511964875846
N            1.39992862843332       -1.92292116855027       -0.09435463396812
C            0.38501371062287       -1.04420109362774       -0.04841069882569
C            0.92584954797410        0.24147579887059        0.04095804908637
C            0.08965778091394        1.37629554239314       -0.03628747697766
O            0.42679421818744        2.55752115171574       -0.08118857955794
N           -1.30417185441247        1.02030419407509       -0.04982680303384
C           -2.26298837598118        2.11351777632361       -0.04916852449849
C           -1.85262685541378       -0.22282682406064       -0.03833062045369
O           -3.05133289634243       -0.41679814040074       -0.01663193445073
N           -0.95922232327792       -1.30791324019421       -0.06541825308714
C           -1.51513422570953       -2.64688144774657       -0.03977550678113
H            3.91734502173468        1.69065553073261        1.17083712151069
H            4.21927462944212        0.81399864199446       -0.33160659119634
H            2.88961918505293        2.05366257656531       -0.28602202064907
H            3.53135951279158       -1.68508811939382       -0.23176338648539
H           -1.69720711957758        3.04155509326880       -0.01005629763380
H           -2.87265871086676        2.07932927442237       -0.95272749816780
H           -2.92274274542660        2.02929005546408        0.81486249045598
H           -1.21050772073491       -3.18755695629567        0.85956671117933
H           -1.22808751824549       -3.21458214457081       -0.92721020888681
H           -2.60201101930328       -2.54037307316246       -0.02982564292921
H            1.31496228389408       -2.92727934258661       -0.13294285979348
25
 energy: 7.987643644755 xtb: 6.6.1 (8d0f1dd)
C            3.35150918482992        1.19714702092162        0.19482021450140
N            2.34096460336472        0.13118760884826        0.13589248622876
C            2.59864442904603       -1.24450327361826        0.05593256256429
N            1.39946386963518       -1.92408620198829       -0.09345985049509
C            0.38619555831406       -1.04444016219121       -0.05032912025234
C            0.92626579658411        0.24096995043767        0.03859676863558
C            0.08911558483012        1.37562732591405       -0.03641096257084
O            0.42780246765730        2.55687583015547       -0.07867628618392
N           -1.30403664290360        1.02076400152771       -0.04943824360929
C           -2.26261824402848        2.11421722988836       -0.04833433841581
C           -1.85188221595663       -0.22228165194683       -0.03926967457814
O           -3.05071264994703       -0.41731457005407       -0.01779634755298
N           -0.95827578306455       -1.30737182892054       -0.06765269176240
C           -1.51412888184314       -2.64633669833465       -0.04162169093623
H            3.91292647187564        1.69245021352166        1.16546477850014
H            4.21810552975340        0.81316789245059       -0.33092734251636
H            2.88925438568980        2.05087614657859       -0.28963724314836
H            3.52822448088778       -1.67958073560015       -0.24802707985355
H           -1.69617709679677        3.04185282142331       -0.00948546749102
H           -2.87270895429592        2.07988219072865       -0.95150707929420
H           -2.92175863611981        2.03020052262971        0.81612422139454
H           -1.20929054998040       -3.18707062472928        0.85773468252869
H           -1.22682151089365       -3.21417699501306       -0.92909280543296
H           -2.60106146661342       -2.54040441781077       -0.03143160727066
H            1.31321493791175       -2.92862299264652       -0.12443398684198
25
 energy: 7.901055788136 xtb: 6.6.1 (8d0f1dd)
C            3.35212374858893        1.19745929004269        0.19709846035774
N            2.34117053257012        0.13073909239150        0.13707734769264
C            2.60038285676753       -1.24842539008616        0.06853876197928
N            1.39912952622142       -1.92555687332816       -0.09293874845610
C            0.38726815361135       -1.04497332742135       -0.05259534014298
C            0.92790922468868        0.24004139946459        0.03480889297189
C            0.08848274838072        1.37471228932375       -0.03681101753677
O            0.42794065078510        2.55545298797565       -0.07772753364952
N           -1.30379474878381        1.02119196283838       -0.04983332111930
C           -2.26251161149607        2.11443978792287       -0.04838278410350
C           -1.85133822422828       -0.22229646157874       -0.04002263509177
O           -3.05017707155714       -0.41787980945367       -0.01852056653104
N           -0.95745167288183       -1.30697426183839       -0.06882285235589
C           -1.51426073907036       -2.64577887911781       -0.04197448057816
H            3.91434079311543        1.69401760650905        1.16412848706208
H            4.21876669968406        0.81649249624516       -0.33411043146214
H            2.88671479741973        2.05157051082874       -0.28635473507755
H            3.52482464618584       -1.67728244401864       -0.25890401508613
H           -1.69617541687512        3.04202511114473       -0.00971455674420
H           -2.87307443437890        2.07970578318788       -0.95116723845939
H           -2.92131598162288        2.03025483162158        0.81634929230494
H           -1.20982256801434       -3.18620828376428        0.85766985554916
H           -1.22787196612725       -3.21432241226460       -0.92916563470571
H           -2.60122457990528       -2.53922890421708       -0.03147392176150
H            1.31217930485871       -2.93014750023572       -0.12011738890881
25
 energy: 8.070847467515 xtb: 6.6.1 (8d0f1dd)
C            3.35333115385208        1.19784715803615        0.19996593446088
N            2.34224897920811        0.12990193653312        0.13676543440534
C            2.60099156730787       -1.25083649717038        0.07201395929423
N            1.39899202154674       -1.92652768402232       -0.09211352319029
C            0.38768465022900       -1.04532603377366       -0.05367587103768
C            0.92978579529576        0.23919007959746        0.03239301257463
C            0.08816367599944        1.37412000218475       -0.03723320506231
O            0.42755889838693        2.55417654243996       -0.07884047153395
N           -1.30320909812760        1.02138023423563       -0.05082919331927
C           -2.26241568625102        2.11413904813008       -0.04959000297149
C           -1.85108199753265       -0.22274035621948       -0.04029214615492
O           -3.04983250477567       -0.41787779463167       -0.01863765131310
N           -0.95702308534755       -1.30680053638600       -0.06864004207850
C           -1.51503187828282       -2.64547600463601       -0.04096126548471
H            3.92014590512013        1.69255707675660        1.16583245839171
H            4.21849317721114        0.82313462085274       -0.33962643634544
H            2.88356615267362        2.05413066569927       -0.27645348178148
H            3.52224743596651       -1.67749359182225       -0.26591523626365
H           -1.69687807568998        3.04208319733107       -0.01100674397280
H           -2.87310183970863        2.07882822152818       -0.95228391331128
H           -2.92139149511526        2.02962811421399        0.81505577365304
H           -1.21129260390056       -3.18529948579717        0.85915271329060
H           -1.22977439152979       -3.21487929375729       -0.92763910471592
H           -2.60197995610224       -2.53776662106542       -0.03037507825009
H            1.31201786750281       -2.93106439608538       -0.12003202313627
25
 energy: 8.175070065353 xtb: 6.6.1 (8d0f1dd)
C            3.35377332136782        1.19804383468589        0.20128326735677
N            2.34284993538719        0.12942795771721        0.13649568450197
C            2.60093127912553       -1.25114058281386        0.07290455222392
N            1.39902476932557       -1.92651269587027       -0.09146237888761
C            0.38751670185244       -1.04517617614309       -0.05375647612267
C            0.93054631244641        0.23898311362921        0.03233397637814
C            0.08828534603190        1.37416038330127       -0.03768619123744
O            0.42727902376143        2.55391278185526       -0.08045361316695
N           -1.30261951552758        1.02129842208011       -0.05149763808899
C           -2.26227372226291        2.11372972183207       -0.05030758227125
C           -1.85104820995461       -0.22313106295712       -0.04016535700091
O           -3.04976991211476       -0.41738679224448       -0.01799150089552
N           -0.95696204238214       -1.30680509895374       -0.06836829176387
C           -1.51539870445107       -2.64551435560991       -0.04022237064731
H            3.92254148006034        1.69131281326957        1.16866526008046
H            4.21874853862527        0.82468469439548       -0.34115139208789
H            2.88226602734821        2.05581717777071       -0.27260239647913
H            3.52082424925706       -1.67743400443892       -0.27067692565216
H           -1.69747019082280        3.04208524599149       -0.01162543601639
H           -2.87283348587822        2.07821867924417       -0.95312846758259
H           -2.92152032028256        2.02884418898151        0.81413354275855
H           -1.21188970324064       -3.18491226868890        0.86013320099654
H           -1.23055829025872       -3.21525443615936       -0.92660462491269
H           -2.60231382876017       -2.53723030471896       -0.02964352268522
H            1.31228560928339       -2.93099263398336       -0.12157142265049
25
 energy: 8.205676919136 xtb: 6.6.1 (8d0f1dd)
C            3.35337178824177        1.19790288688073        0.20129332665828
N            2.34324027379075        0.12883709165420        0.13509117926730
C            2.60082848225606       -1.25084679868757        0.07281124018420
N            1.39902110069688       -1.92629026658151       -0.09056654498007
C            0.38716552243023       -1.04485273585843       -0.05365678619362
C            0.93082925456973        0.23894343864946        0.03284176717969
C            0.08872723230334        1.37436537378328       -0.03843826594323
O            0.42745367040533        2.55401762190102       -0.08244250806474
N           -1.30183095337610        1.02109995845664       -0.05203326199575
C           -2.26185476675623        2.11338003229585       -0.05095542641377
C           -1.85094801850070       -0.22344557043976       -0.03985415243438
O           -3.04970513342552       -0.41650841997139       -0.01700300862096
N           -0.95700486307839       -1.30688544551287       -0.06802594993212
C           -1.51547301886981       -2.64569496605760       -0.03960286457095
H            3.92460175730221        1.68781250079169        1.17123852596486
H            4.21739616546995        0.82708071630908       -0.34328877163245
H            2.88062426894427        2.05719986180351       -0.26774433370043
H            3.51924104686454       -1.67699400964922       -0.27258630906394
H           -1.69760870441283        3.04209240783904       -0.01215659481350
H           -2.87216167732130        2.07781341053132       -0.95400250768513
H           -2.92138522331178        2.02821486221162        0.81323604576584
H           -1.21192935853280       -3.18476847167415        0.86087810534203
H           -1.23056066669514       -3.21553289516187       -0.92581795067588
H           -2.60234976358424       -2.53723282637180       -0.02908245233700
H            1.31252625252621       -2.93067915496926       -0.12309860515697
25
 energy: 8.168044151571 xtb: 6.6.1 (8d0f1dd)
C            3.35285760528113        1.19774748700315        0.20063456033671
N            2.34294250271472        0.12897968189185        0.13522898643035
C            2.60101889254393       -1.25077013074054        0.07515059643568
N            1.39890827859518       -1.92617879147892       -0.09005219554629
C            0.38716510567266       -1.04472183168131       -0.05344769089193
C            0.93043009906400        0.23911508779315        0.03346352366177
C            0.08879518086815        1.37447225832189       -0.03850220174520
O            0.42757117347072        2.55424437399152       -0.08238107772570
N           -1.30191045891973        1.02106622289924       -0.05185609920101
C           -2.26182933178414        2.11347990020601       -0.05072012203621
C           -1.85088540917952       -0.22337211384158       -0.03982763011047
O           -3.04967943227862       -0.41650209966117       -0.01692177044321
N           -0.95698073764906       -1.30689780972508       -0.06823084377054
C           -1.51517802596381       -2.64573125528263       -0.03997769834878
H            3.92326910578032        1.68854757292840        1.17146764537860
H            4.21761021663396        0.82513984915553       -0.34168399247953
H            2.88105803371017        2.05669726554486       -0.27032904915325
H            3.51902786645967       -1.67631441747073       -0.27515577926298
H           -1.69737467580123        3.04208911499820       -0.01179351408480
H           -2.87206159548563        2.07809749883626       -0.95381105396473
H           -2.92132765054784        2.02829357341779        0.81345697729088
H           -1.21148647292714       -3.18493695288637        0.86040810780495
H           -1.22993760541650       -3.21540341500614       -0.92628523648593
H           -2.60205519273082       -2.53756917545962       -0.02951060999703
H            1.31226719582585       -2.93054329158175       -0.12228993594406
