25
 energy: -42.021832943372 gnorm: 0.003572990489 xtb: 6.6.1 (8d0f1dd)
C            3.36776643621623        1.43761922036068        0.01210673290603
N            2.57893634810510        0.23325359678009       -0.00021485624899
C            3.17892376554340       -1.00267476286443        0.00648727606103
N            2.60534887552389       -2.12083503176667        0.01549163433642
C            0.55117956779360       -0.98982830581373        0.02103476808183
C            1.21514833383499        0.18972440968249        0.00821805360107
C            0.25977475465069        1.33270495310560       -0.00992637593251
O            0.63841681960264        2.48176894894063       -0.03678357446242
N           -1.07682695859705        0.98421018361115        0.00335652292471
C           -2.05584874907128        2.06070687473178       -0.00490962997329
C           -1.61048127832516       -0.30502385023099        0.02051750984721
O           -2.78706341007799       -0.53268441055749        0.02911849695570
N           -0.65534044532699       -1.30998199547628        0.02543171072905
C           -3.16985458898467       -3.42320032244682       -0.02943517613009
H            3.87815267515500        1.54531493869086        0.97236709993157
H            4.11832597906104        1.39972245227748       -0.77854952599795
H            2.72111824997628        2.30104675211435       -0.13973136533030
H            4.26300171773048       -1.00309442139525        0.00369674738627
H           -1.52623242191642        3.01142091890787       -0.00421364620112
H           -2.68450641331383        1.97937127339919       -0.89240040667968
H           -2.69414984511159        1.98179846755544        0.87579222576520
H           -2.83659984576299       -3.91256293998698        0.86508234637736
H           -2.81026335457777       -3.75341140582776       -0.98493483408351
H           -3.86284516264828       -2.60298156062447        0.03043083231991
H            1.55435046462221       -2.16414544156758        0.02313905171824
