72
 energy: -99.634300819156 xtb: 6.6.1 (8d0f1dd)
N           -1.44389635412746        3.01416721622261        2.38728597911115
C           -1.55547185286075        2.27084430945081        1.38251415397754
C           -2.76108433645261        2.24172737634136        0.49209776802638
C           -3.38572913644632        0.86668268578244        0.58393150624918
C           -4.17531304376388        0.45228119729668       -0.47059603697694
C           -4.24514946576316       -0.93548375456909       -0.68516529231113
O           -3.53530671433425       -1.35760435506979       -1.86120951677216
C           -4.49972901539192       -1.71437683779911       -2.81769260810480
C           -4.37888404100457       -1.76289927242285        0.47431202675623
O           -5.12311662876947       -2.91768170541489        0.42973097456581
C           -5.00003729922693       -3.83937761941017        1.49063958747242
C           -3.66097488510198       -1.31926026726890        1.56770443758859
C           -3.03145449445386       -0.07457472031517        1.54075313085490
C           -2.22631820547704        2.50048566854366       -0.94940614238925
C           -1.45945239455052        1.34115918983418       -1.61760640815624
C           -0.11681900191544        1.12537642989747       -1.04026096142300
N            0.40039310254318       -0.08398377705972       -0.69754975405084
C            1.76843949042552       -0.17568876398642       -0.28602981697266
C            2.70206189913407       -0.64800943299919       -1.42306485516240
C            4.13001681008194       -0.52637040350565       -0.98607889604411
C            4.82658777181967        0.65077871300478       -1.18460408233136
C            6.13126811532856        0.79043171774268       -0.73331005509515
C            6.75755667254597       -0.24797156638225       -0.06804034812185
O            8.02964987309351       -0.22366557502504        0.42016434628750
C            8.79427350225131        0.94098810030431        0.24489360648125
C            6.05442053659001       -1.45629853568263        0.14165624722154
O            6.75352877827333       -2.42350910530262        0.79865958631683
C            6.13973003519505       -3.66507878496365        1.02855556839681
C            4.75523956880313       -1.57654447650989       -0.31437623477705
C           -0.37269709046021       -1.29232364444996       -0.79604357414777
C           -3.85790677071953        3.26977453734086        0.84574119926261
C           -4.44265296876032        2.98470054074404        2.22738696843353
C           -3.36802331739872        4.71092968487766        0.76948926341755
H           -4.51325391568928        1.12934788598155       -1.24343715205449
H           -5.40832680947631       -1.54828034733447       -2.19140656489345
H           -4.35029636350441       -2.75263503743074       -3.13749188188753
H           -4.49611978964581       -1.06153492781312       -3.70237729114124
H           -5.25716267398014       -3.42150028694491        2.47222749731945
H           -5.68780101775190       -4.65690491587351        1.27180626722655
H           -3.97838010941238       -4.22921977605667        1.52536298273257
H           -3.44644010341015       -1.99960722639006        2.37682427587698
H           -2.29271258393294        0.15637413116815        2.28594185449862
H           -3.06940229458672        2.74797620375462       -1.59451107410796
H           -1.57012060673199        3.37318384572975       -0.91475099841501
H           -2.05873478800644        0.43368951738089       -1.58900358316622
H           -1.33403181367847        1.61716778564624       -2.67512623022638
H           -0.76555164290049        1.59248729709856        1.02477820440328
H            0.54842494030249        1.96787802719218       -0.96039204168244
H            1.84438938870626       -0.86837393124243        0.55756403839132
H            2.10894742818717        0.80736018765126        0.05052155633548
H            2.52162991811831       -0.02054337394455       -2.29767329011195
H            2.46236853144393       -1.67962216473413       -1.68394109785594
H            4.35755274041910        1.47291427281968       -1.70449664352295
H            6.64961847549684        1.71905433186098       -0.91139441285014
H            8.33890690034612        1.80500115009826        0.74118176932023
H            8.94634923032276        1.17111215595073       -0.81527445932578
H            9.75681525086914        0.72776977298854        0.70754028692306
H            6.88569781243426       -4.26524264579610        1.54754485585999
H            5.25136625610711       -3.56878200689104        1.66230092568980
H            5.86589471152160       -4.16235009258400        0.09184468379334
H            4.20871809994579       -2.49468746490472       -0.16264722352014
H           -0.76476684407160       -1.44590778660451       -1.80364731171785
H           -1.22649814386279       -1.25788064133137       -0.11260879271855
H            0.25979300413949       -2.13645369137641       -0.53262015840649
H           -4.65863999191816        3.13427046990322        0.10780551413243
H           -3.67635068797043        3.11822001375354        2.98406545586779
H           -4.82030642193964        1.96632722245254        2.28504529986650
H           -5.26336408428945        3.66896158094591        2.42628020978058
H           -2.53079242244352        4.85002038799448        1.44616051599983
H           -3.06168610406789        4.97496140955552       -0.23927320258607
H           -4.17195518972447        5.37937608033914        1.06522028507427
H           -0.56035210525446        2.94625229389674        2.88741328648027
