25
 energy: -42.189459244121 gnorm: 0.007570711653 xtb: 6.6.1 (8d0f1dd)
C            4.19196652245437        0.54389041557796        0.03189338562780
N            3.50197321849819       -0.51443203296624       -0.01950403366387
C            2.75760115054375       -1.53714111200631        0.00363005839006
N            1.40213628235810       -1.60111625177501        0.00950780158620
C            0.44105711625214       -0.60457328184835        0.00442720537367
C            0.72272768466505        0.73395103445187        0.00865407279619
C           -0.31433781396165        1.72808339996812        0.00070870723512
O           -0.10317244903474        2.92453188861843        0.00416478576368
N           -1.61451289123805        1.22006235145047       -0.00797332733847
C           -2.72233714020363        2.15566193739663       -0.01582721577159
C           -1.93174905019371       -0.11160929198821       -0.01262957862883
O           -3.07426416198647       -0.50070250189550       -0.02271960590346
N           -0.86368578730864       -1.02695640325074       -0.00472955190710
C           -1.23161582231256       -2.42977522406236       -0.00542880609677
H            4.49168155427124        0.95857691754287        0.98655793036410
H            4.57696753399137        0.98465929148265       -0.87889854408760
H            1.72279593289774        1.11788759125529        0.01339044729582
H            3.25042489013863       -2.50599879092068       -0.00086334642438
H           -2.30762036583702        3.16274758292472       -0.01630249087820
H           -3.33846632857685        1.99867523731294       -0.90243190970293
H           -3.34733938626972        2.00360366268457        0.86535713105494
H           -0.88147071981302       -2.93367936012184        0.89784819657983
H           -0.86989938362338       -2.93642292647737       -0.90260989411547
H           -2.32266292128129       -2.46957754848197       -0.01256002957252
H            1.02423384967009       -2.54210804327189        0.00751022992384
