25
 energy: -42.166995435244 gnorm: 0.008193895670 xtb: 6.6.1 (8d0f1dd)
C            4.29317176441565        0.45588374221858       -0.01158952811690
N            3.40585140900966       -0.41438940436550       -0.21859046215993
C            2.72789449257655       -1.45717803336310        0.05922278762423
N            1.39397624074686       -1.59021429904606        0.02749297871928
C            0.41628934025186       -0.59264853712046       -0.01447766182582
C            0.70932691133374        0.73195435401160       -0.02520357247585
C           -0.33293701444661        1.73632036810755       -0.02226112323436
O           -0.12036538489565        2.92682841380279       -0.01787084845358
N           -1.62860418769265        1.22380003078400       -0.01102996266988
C           -2.74374725630203        2.15435732031880        0.01397739229577
C           -1.95318345105578       -0.10845018468025       -0.01832193575434
O           -3.09166114692533       -0.49502150937533       -0.01675382122250
N           -0.88079720394024       -1.02216442605095       -0.02318394129894
C           -1.24176831148324       -2.42820528203726       -0.03603348121246
H            4.61320549723039        0.72957174224319        0.99424821748123
H            4.72609122924861        0.97596459532843       -0.85959672128311
H            1.71439160783368        1.10302097537482       -0.02345807969642
H            3.27851052025301       -2.38581778764194        0.19538029487871
H           -2.33719683091738        3.16276419643810        0.05225530023199
H           -3.35460947666597        2.02353151813933       -0.87936248135177
H           -3.36540523475037        1.95776468685307        0.88738472875135
H           -0.92081432285232       -2.93197851453316        0.87792278204285
H           -0.84815479815120       -2.93044181468136       -0.92113197283582
H           -2.33182487417329       -2.47162940345660       -0.07661247621020
H            1.03279199545239       -2.53538420566830        0.09876520567689
