25
 energy: 55.973379906557 xtb: 6.6.1 (8d0f1dd)
C            3.62305189789453        0.85968910946447        0.12561281601044
N            2.61620478429757       -0.16876277722990        0.04275904732449
C            2.86267569145366       -1.47638757960356       -0.02678528966406
N            1.67546363072652       -2.13589974918186       -0.05715167067255
C            0.66217350070308       -1.20498522796376       -0.00089638332403
C            1.27078171056637        0.04732839423460        0.05448298270166
C            0.43135288818408        1.28478003046741        0.09093767065702
O            0.92577025826065        2.39992316849828        0.11811471791163
N           -0.87401108193517        1.03824677393735        0.08105645497678
C           -3.84299968327438        2.97726494294191       -0.17760482665743
C           -1.53961514638931       -0.06268301813888        0.04228440153545
O           -2.71038706073527       -0.30592580259523        0.03816829469886
N           -0.64295709949276       -1.37829262424147       -0.00442164236369
C           -1.27815909080194       -2.66023730370148       -0.03498991967708
H            4.01767714729702        0.88031099745522        1.14179135118098
H            4.42830845922956        0.59596475436662       -0.55998525634002
H            3.21646451587247        1.84009902341456       -0.12559947203378
H            3.82372278559539       -1.94386992663744       -0.06461727940616
H           -3.20552008575382        3.82511384760777       -0.16191938140094
H           -4.19150757060711        2.61662832616433       -1.11746681039801
H           -4.31369075894520        2.67146990804122        0.72809830412163
H           -0.98605197146730       -3.25584031246549        0.83508382530018
H           -1.03426968871580       -3.19815769912304       -0.95618133024565
H           -2.35319580399303       -2.47240625097702       -0.00190578597485
H            1.53439370638144       -3.12983577953927       -0.11047152136938
