25
 energy: -3.214071469936 xtb: 6.6.1 (8d0f1dd)
C            3.29308718260640        1.14992529290174        0.09260284516923
N            2.33335744203255        0.09785202449692        0.03217170484364
C            2.61854644968953       -1.25643777722389        0.02292062113706
N            1.42560474325339       -1.94305199125671       -0.02048292936289
C            0.42126954087592       -1.04410655221350       -0.00680229418423
C            0.93824805204284        0.24598614784961        0.02722794431342
C            0.11561831481013        1.40830285200973        0.02244596017488
O            0.51440683380186        2.57687325359886        0.03399064768931
N           -1.31637103086297        1.10502234634658       -0.01712113082731
C           -2.35246686604763        2.17190867755525       -0.06887704149809
C           -1.81480463295980       -0.16467357997249       -0.02470909989503
O           -3.00747352143163       -0.39680408687446       -0.03961948227174
N           -0.92047754646240       -1.26507895997596       -0.02115339629058
C           -1.44510318230615       -2.61768133924238       -0.05317763791752
H            3.76651732604734        1.19356305040901        1.07805521829412
H            4.06846727543730        1.00028396340959       -0.66393823381319
H            2.76994778455312        2.08346234978731       -0.08727380838718
H            3.59168951496907       -1.68793174162077        0.02748869786166
H           -1.84588232434155        3.13761365771974       -0.04957879486596
H           -2.96779428077961        2.10172282042775       -0.96781917620905
H           -3.02976330745858        2.10810113942288        0.78371199171459
H           -1.13088467084622       -3.18160014290534        0.83011957843300
H           -1.11752318084570       -3.15072528793506       -0.95111625712534
H           -2.53099808599768       -2.53894481576689       -0.06139180346692
H            1.34706421241112       -2.94781453876471       -0.04487118186240
