25
 energy: 56.610035680529 xtb: 6.6.1 (8d0f1dd)
C            3.59989197503503        0.88906685188580        0.13145706531995
N            2.58599930728852       -0.13223593337283        0.03426816820205
C            2.83335240743464       -1.44059275886662       -0.04697259650583
N            1.65255560298814       -2.11338494207518       -0.06126254965917
C            0.63822907731567       -1.17694077907760       -0.00204251929272
C            1.24002808923291        0.07629660686451        0.04350842540501
C            0.41379627900218        1.31322630620764        0.08786036169486
O            0.94130733779119        2.41095021541173        0.14169266473382
N           -0.91462089129420        1.09163012033876        0.06582382836833
C           -3.70342351368166        2.83204205562366       -0.17022506239804
C           -1.56489745285922       -0.02518151248984        0.03802140314687
O           -2.72957475056233       -0.30580189780116        0.04936613908480
N           -0.66363867196621       -1.33916111008451       -0.00647919032735
C           -1.28743471983791       -2.62980546936143       -0.03395269152588
H            3.99125872036627        0.91152307455375        1.14908081413040
H            4.39959703487332        0.62330606855495       -0.55707291893280
H            3.24053414389765        1.88110301101677       -0.11305297122067
H            3.79109606053997       -1.90884171562732       -0.06861054508370
H           -3.07593926017017        3.68118547627693       -0.15645880338062
H           -4.06677833649305        2.48294511811935       -1.10682279494138
H           -4.18389978533695        2.53634813332188        0.73080640751034
H           -0.97644516526113       -3.21624145078966        0.83544704412608
H           -1.03028097558093       -3.16385335038165       -0.95427586166359
H           -2.36767440827030       -2.47328884165867        0.00418965461693
H            1.56812438968603       -3.12046678345763       -0.10087312029180
