25
 energy: 23.368120221934 xtb: 6.6.1 (8d0f1dd)
C            3.39084527858774        1.08877641343872        0.10358340266752
N            2.40366099689599        0.06327915729011        0.01125908885321
C            2.66846103927613       -1.30210710050456       -0.01161410337922
N            1.46711695978764       -1.96061316061138       -0.05221234596984
C            0.47657697593657       -1.03871215505730       -0.02268375538908
C            0.99730347157739        0.24892407461254        0.02340634324896
C            0.17181483141718        1.43467363023696        0.03879937387257
O            0.61739350283345        2.57489787313038        0.10436659490091
N           -1.38307221438841        1.21838988946699       -0.02713442383609
C           -2.62822890098962        2.24606140933735       -0.11784957114686
C           -1.79734992581858       -0.08472105473423        0.00275689566930
O           -2.96966733215936       -0.39985547445097        0.02809812880778
N           -0.87173931285447       -1.20408398430294       -0.00678929141090
C           -1.39159744713944       -2.57223651979974       -0.03747283083058
H            3.84930448062668        1.12405448975227        1.09621751632374
H            4.17710181797650        0.90944162539106       -0.63597297332040
H            2.91565093679063        2.04406908601158       -0.08031810279801
H            3.62496739510244       -1.77273345036124       -0.03235613968979
H           -2.20582314810991        3.25341518197869       -0.10818884668084
H           -3.25293384343348        2.11221920332455       -1.01211057496807
H           -3.33104538810684        2.15901567584260        0.71490970452410
H           -1.05117616055649       -3.14860263893393        0.83090298843577
H           -1.06912473544567       -3.10254425387456       -0.94135708583393
H           -2.47853231686631       -2.52402516449439       -0.02628722946980
H            1.39305977953664       -2.96657670412792       -0.11219895765731
