25
 energy: 55.848904416439 xtb: 6.6.1 (8d0f1dd)
C            3.46151270800918        1.03379183325692        0.11391402601430
N            2.46909738134581        0.00539743129775        0.01225644896130
C            2.72288241652412       -1.32340478427549       -0.00339724020421
N            1.53649276146149       -1.99977573774009       -0.05131289884937
C            0.53142004701157       -1.06876575057975       -0.01987112779154
C            1.09403270880566        0.19411308532429        0.02497741097567
C            0.22745946839000        1.41133261150766        0.05247780155435
O            0.72209191575434        2.52575389559910        0.12806154184583
N           -1.15486413532226        1.16853542009841        0.00917600802456
C           -3.05956786859255        2.45860621159607       -0.14331927190132
C           -1.70426568406915       -0.04250527700860        0.01504301347608
O           -2.87121275893879       -0.35737132180079        0.04445038550542
N           -0.78968318262827       -1.23526550217040       -0.00873811426180
C           -1.34649230568393       -2.57280969987174       -0.02545197229554
H            3.90109393757294        1.06384464455060        1.11273594406112
H            4.25456514516966        0.83310101858163       -0.60931051735130
H            3.01658247700937        2.00159469154493       -0.07699271478394
H            3.66575673993600       -1.80850487741503       -0.10390451603000
H           -2.49138718760607        3.36457026654136       -0.14029800317531
H           -3.54649597234186        2.18369515568264       -1.05220488862325
H           -3.63324228410891        2.22488768757702        0.72213981667631
H           -0.99476972377658       -3.14317549842939        0.83887251657413
H           -1.03785531131576       -3.08734116669071       -0.93852805691213
H           -2.43525139508248       -2.51567711538316        0.00349333236394
H            1.46173742222833       -3.00230795175043       -0.09754033031580
