25
 energy: -5.592528334709 xtb: 6.6.1 (8d0f1dd)
C            3.26689164565170        1.16204725244837        0.08932527033914
N            2.31743676467110        0.10086405130829        0.03388383754098
C            2.60856072211875       -1.24692757416902        0.02868100200249
N            1.42240114876714       -1.94178463750591       -0.00637270976223
C            0.40954275541002       -1.05318876891243       -0.00742764122739
C            0.92792425064957        0.23576125924261        0.01969656003408
C            0.11448396264821        1.39620268645441        0.00575298061288
O            0.50417264151029        2.56844470618491        0.00703272133834
N           -1.29324115068709        1.07688903031485       -0.02366965864121
C           -2.28592729795410        2.16041510743214       -0.05820771404355
C           -1.81697539522487       -0.18078935524419       -0.03650852216783
O           -3.01350443692365       -0.38971263760259       -0.05750853357628
N           -0.93035720531315       -1.28292463560695       -0.02923551787379
C           -1.45808106474375       -2.63079221672178       -0.05664411497188
H            3.74120931534993        1.20707392591729        1.07395927699751
H            4.04001012455519        1.01832184787443       -0.66953645836030
H            2.73491096802741        2.09219236108755       -0.09002580632439
H            3.58425959656824       -1.66669478976978        0.03696853868636
H           -1.75159728100205        3.10945661135098       -0.03596565641843
H           -2.89744739588741        2.10445055228034       -0.95930275759022
H           -2.95352995914044        2.09662122681822        0.80098129730535
H           -1.14916101071980       -3.18936405871336        0.83116777392375
H           -1.12971578728404       -3.16495896959065       -0.95279634894233
H           -2.54386098480660       -2.54809859212090       -0.06822872575105
H            1.35717098040556       -2.94648691626569       -0.02548023633608
