25
 energy: 14.561295661264 xtb: 6.6.1 (8d0f1dd)
C            3.36699568602328        1.10560715041952        0.10038922882205
N            2.38483267082107        0.07486185282331        0.01725525023358
C            2.65424905919036       -1.28915560144004       -0.00203426008379
N            1.45442721215585       -1.95506707496693       -0.05006282401153
C            0.46209101813332       -1.03739571182383       -0.01255191942672
C            0.97915082385444        0.25207392755837        0.02792781630425
C            0.14935863190852        1.43231932936905        0.04091690221110
O            0.58663516020251        2.57853646585864        0.09223717703291
N           -1.38197193460804        1.19727711114141       -0.01825748275556
C           -2.55934877970720        2.22556669261242       -0.10682002381706
C           -1.80473947814504       -0.10454847668465        0.00166647244090
O           -2.98212064609681       -0.40455923565640        0.01164848444636
N           -0.88587863160359       -1.21570922294484       -0.00279391054901
C           -1.40476110808990       -2.58254596249312       -0.04078920767935
H            3.83001032299718        1.14300251385468        1.09097620883403
H            4.15016813062774        0.93235713394193       -0.64405064399598
H            2.88091514368089        2.05622266383010       -0.08249970676384
H            3.61491505722120       -1.75203110693284       -0.01321588442461
H           -2.11699568569009        3.22436444748691       -0.09266963460431
H           -3.18204824147986        2.10546059989103       -1.00220821616762
H           -3.25773257446221        2.14411814259724        0.72978512012371
H           -1.07105023073988       -3.15709048843591        0.83057770608267
H           -1.08002009637939       -3.11430953349270       -0.94291839096158
H           -2.49156143107811       -2.52900027488166       -0.03592419105964
H            1.37429749996595       -2.96132286190603       -0.10126444487358
