  25
        -42.18788999
 C          3.2091359371        1.0653148620        0.0084689162
 N          2.3398662799        0.0775906077        0.0076264377
 C          2.5767944679       -1.2560339694        0.0201428806
 N          1.3873987107       -1.9453123621        0.0195098273
 C          0.3802480551       -1.0776866506        0.0066215881
 C          0.9350137267        0.2274469223       -0.0015166751
 C          0.0833727897        1.3193421964       -0.0180432709
 O          0.5073240955        2.5700835128       -0.0521290620
 N         -1.2633537815        1.0544780915        0.0027021066
 C         -2.2043301550        2.1683030232        0.0357963090
 C         -1.8404568487       -0.2320397100        0.0096179469
 O         -3.0290417826       -0.3821922246        0.0286715842
 N         -0.9610387853       -1.2996800045       -0.0096368054
 C         -1.4895260658       -2.6505416059       -0.0497509005
 H          2.8609367952        2.0760536607       -0.0087385329
 H          4.2556937509        0.8398492065        0.0236630573
 H         -0.2096751304        3.2323022582       -0.0828432440
 H          3.5413345957       -1.7097834830        0.0369034229
 H         -2.0151764916        2.8109607018        0.8974277760
 H         -2.1737740549        2.7367551741       -0.8966620482
 H         -3.2020391703        1.7426728298        0.1416364548
 H         -1.2022806244       -3.1994517810        0.8473710252
 H         -1.1269714124       -3.1681825696       -0.9382834709
 H         -2.5750499764       -2.5825888001       -0.0922477584
 H          1.3260926694       -2.9516579047        0.0283036016
