25
 energy: -42.119772291211 gnorm: 0.008695290630 xtb: 6.6.1 (8d0f1dd)
C            2.47303386353632        2.12161691378972        0.01080353140714
N            2.31530256251426       -0.65555886599359        0.01400985470318
C            3.35749905896136       -1.17569705263962       -0.03015269060763
N            0.56166820096028       -2.86751110147147       -0.00894460524196
C            0.16574010682433       -1.67604503182875       -0.00281978223300
C            1.02448174316980       -0.44116318139812        0.00231229236688
C            0.43313701161396        0.82750934177743       -0.00098214693115
O            1.05895291969532        1.98771139596150       -0.00131117685182
N           -0.90383075308008        0.91709544819739       -0.00188242973495
C           -1.58889210837832        2.20227573557802       -0.00430801144046
C           -1.78050988553758       -0.20402888719061        0.00189677423980
O           -2.96327855824767       -0.02267249982581        0.00473961275492
N           -1.18601780295632       -1.43322759026353        0.00241355423101
C           -2.05381266895294       -2.60260185044549        0.00514793204571
H            2.90799617947800        1.68725518735864        0.91337213644963
H            2.92267436718271        1.69184086470378       -0.88645262538168
H            2.62971236245568        3.20148605537486        0.01447267113327
H            4.34604519063052       -1.53843723191145        0.00988650019391
H           -0.86782783177355        3.01126366163603        0.00692033581219
H           -2.21728619820946        2.26935810092552       -0.89211254198697
H           -2.23698950555658        2.26187108757235        0.86975177198003
H           -1.84433250668744       -3.20685022334908        0.88566586248043
H           -1.85690724793172       -3.20212715431128       -0.88153078933914
H           -3.08629131943379       -2.26193041440753        0.01324047504130
H            1.55016433379286       -3.07319416624352       -0.01296488716772
