25
 energy: 103.764233396313 xtb: 6.6.1 (8d0f1dd)
C            3.32281475939457        1.19297218129349        0.04000388068623
N            2.37188504189475        0.10832098129948        0.04279670018849
C            2.70748514908591       -1.17565728897798        0.02509581123594
N            1.59514456668183       -1.93278936501968        0.06411967387028
C            0.45905379043193       -1.08456649166782        0.10563328384160
C            1.01249008115523        0.23003558129391        0.09187113800333
C            0.25784523659539        1.49507762279596        0.09239721631855
O            0.81986726939203        2.60068471346698        0.02271584455572
N           -1.04001016778230        1.27084909427795        0.16852826705565
C           -2.02770539592605        2.27926296994388        0.17875716893887
C           -3.81130755043958       -1.17928091943473       -1.35964476914552
O           -4.17818253872408       -0.12011045638393       -1.23048617017719
N           -0.77564081634406       -1.38823139348599        0.14379910381320
C           -1.32359219787580       -2.70029491716235        0.18259003393005
H            3.81277207988917        1.26600485261881        1.01247377966422
H            4.07904760262455        1.02769333805802       -0.72697807207561
H            2.78236741227303        2.12320960837247       -0.15118991956911
H            3.71023683339441       -1.55168201398234       -0.01628407595980
H           -1.61189968747218        3.29253992351614        0.22242488040875
H           -2.64484055146130        2.18458780509014       -0.72155339112627
H           -2.68225166954247        2.11335416094221        1.04080736591436
H           -0.80920556914577       -3.37782999069195        0.87648923622515
H           -1.32550792398986       -3.15090067825609       -0.81598318323572
H           -2.36485431421833       -2.59596715710209        0.49314864995264
H            1.57620286508161       -2.93825337206000        0.04550145888193
