  72
        -99.24713756
 N         -1.8031343038        2.8206941846        2.3269213558
 C         -1.9430150894        2.1620026921        1.2751697016
 C         -3.2243466425        2.0590861569        0.4946545742
 C         -3.6752762100        0.6066280931        0.4569864133
 C         -4.6832509440        0.2108569090       -0.4242595141
 C         -5.1505915540       -1.0927805659       -0.4487883046
 O         -6.1234065445       -1.5579420739       -1.2589673079
 C         -6.8028538190       -0.6634717113       -2.1082197898
 C         -4.5923645131       -2.0540554352        0.4371392379
 O         -5.1107394608       -3.2943267098        0.3453581567
 C         -4.6916587743       -4.2820296745        1.2581396665
 C         -3.5920661614       -1.6541094580        1.3091560433
 C         -3.1433657516       -0.3405172290        1.3191269657
 C         -2.8903863202        2.5580856197       -0.9357818023
 C         -2.0208701035        1.5936563876       -1.7569309228
 C         -0.5979245468        1.5838492146       -1.3413965300
 N          0.1889729939        0.5314777276       -1.3159439046
 C          1.6662590098        0.6871935706       -1.3157141780
 C          2.1545904200        0.4949382974       -2.6845786860
 C          4.7997612486       -0.9487598179       -0.5436456832
 C          5.2224313142        0.2861638411       -0.9344443000
 C          6.5439996784        0.6281513092       -0.6356824375
 C          7.3780402758       -0.2714197161        0.0137124002
 O          8.6652931926       -0.0440640639        0.3462450786
 C          9.2491711840        1.1986882285        0.0315862428
 C          6.8911915597       -1.5598103050        0.3793874894
 O          7.7790251601       -2.3651719379        0.9872829888
 C          7.4054327605       -3.6778739074        1.3331714614
 C          5.5638096826       -1.8840102878        0.0926498807
 C         -0.3130265037       -0.8041710880       -1.5376761145
 C         -4.3876633757        2.9049705261        1.0927996698
 C         -4.7775657824        2.4115787929        2.4841486496
 C         -4.0845914993        4.3997350102        1.1456790393
 H         -5.1208518232        0.9366640884       -1.0893481973
 H         -7.2816190115        0.1418159424       -1.5428289266
 H         -7.5675533927       -1.2574850386       -2.6050072766
 H         -6.1329185996       -0.2359036209       -2.8615581397
 H         -4.8808312812       -3.9773847333        2.2918855274
 H         -5.2859615184       -5.1641255130        1.0268914618
 H         -3.6298300949       -4.5187456481        1.1349360652
 H         -3.1609927226       -2.3572670784        2.0030216379
 H         -2.3872879695       -0.0578376059        2.0351665689
 H         -3.8243629876        2.7186963093       -1.4734269042
 H         -2.3848846122        3.5217244696       -0.8627536355
 H         -2.4557731897        0.5949231903       -1.7356027007
 H         -2.0454309380        1.9428083465       -2.7977833670
 H         -1.1179859603        1.6186330917        0.7774818843
 H         -0.1282446441        2.5440452100       -1.1806505299
 H          2.0798347765       -0.0527987278       -0.6268814640
 H          1.8789695679        1.6903537758       -0.9393196965
 H          2.0043519107        1.2704845084       -3.4104125056
 H          2.4434255379       -0.4761271137       -3.0320152604
 H          4.5857744506        0.9798273482       -1.4612048179
 H          6.9032125237        1.6022271577       -0.9271108882
 H          8.7332818016        2.0216585591        0.5355922246
 H          9.2564136520        1.3761695002       -1.0481028503
 H         10.2734853906        1.1388139769        0.3941535429
 H          8.2951972575       -4.1277224998        1.7688833653
 H          6.5975289125       -3.6842405637        2.0716587461
 H          7.1018980944       -4.2527604079        0.4525412986
 H          5.1629840426       -2.8476945620        0.3656926923
 H         -0.6333871672       -0.9496931020       -2.5723916710
 H         -1.1599913486       -0.9976453658       -0.8756145634
 H          0.4783761869       -1.5190538973       -1.3174638583
 H         -5.2480835355        2.7555111651        0.4299740705
 H         -3.9541789452        2.5599437154        3.1756940940
 H         -5.0416841474        1.3569895484        2.4686561468
 H         -5.6355826973        2.9733458607        2.8432290313
 H         -3.2120276814        4.5844282551        1.7649185710
 H         -3.9196407126        4.8182746615        0.1562185881
 H         -4.9316031425        4.9180974133        1.5877411705
 H         -0.8824917075        2.8435414529        2.7545558393
