72
 energy: -99.301793974099 gnorm: 0.000843463010 xtb: 6.6.1 (8d0f1dd)
N           -1.58463292212135        2.71578312902735        2.30373873938293
C           -1.58514890308218        2.04154842560196        1.25252276060502
C           -2.77070601583792        1.87744517222474        0.34202460768097
C           -3.27545118457737        0.44430425915274        0.41824711555248
C           -4.19740334112562       -0.01735279580306       -0.52353079025086
C           -4.69926939529622       -1.30686536519741       -0.47318582638736
O           -5.58601579754900       -1.83267524321118       -1.34405032598006
C           -6.11113416785954       -1.02165708847523       -2.36805777795644
C           -4.27289261610348       -2.18408776679989        0.56036340678254
O           -4.81524573861362       -3.41791578783751        0.53356441445028
C           -4.50974306255385       -4.32320126043472        1.56858415988514
C           -3.36046940553200       -1.71845885891075        1.49351367578358
C           -2.86786116784841       -0.42149880482721        1.42108438446779
C           -2.25299107146292        2.18680416535328       -1.08635801075965
C           -1.36486631218211        1.08560736376604       -1.69001594976850
C            0.01170318395100        1.05317902121208       -1.14593801857467
N            0.68179247280473       -0.04512923837889       -0.81434111212812
C            2.11838584141711       -0.01501759656409       -0.67426716563885
C            2.79965074922912       -0.56103597162445       -1.93485388110306
C            4.33260058281176       -0.55922207235429       -1.76875272699943
C            4.91174902711426        0.81824773321901       -1.78590472473571
C            5.89163105137882        1.19697745496119       -0.92954953245204
C            6.36586917941382        0.33882123163553        0.08674600284325
O            7.35792735241578        0.60861127898192        0.92877566293794
C            8.10695012759847        1.79807181117380        0.79051293572994
C            5.72498134514886       -0.94289002521747        0.25794701290711
O            6.16010841153796       -1.66566013518692        1.31866751697034
C            5.59855488834350       -2.95015164424849        1.45002139272289
C            4.75653524243367       -1.34445452246149       -0.59726838791254
C            0.03842854237228       -1.33326296218446       -0.71254749974517
C           -3.95664704114567        2.82621600115912        0.68958160863878
C           -4.56712349991354        2.48884794849895        2.04763591999560
C           -3.57389432554957        4.30306531309115        0.64990997658454
H           -4.53793869104437        0.64749483809731       -1.29968574101781
H           -6.64382763997997       -0.15629728797849       -1.96237398775654
H           -6.81227017551030       -1.65352286242402       -2.90966268451209
H           -5.32815857703546       -0.68212366490191       -3.05426464550474
H           -4.80336894059156       -3.92821828398978        2.54560882618701
H           -5.08857490648947       -5.21906558578411        1.35279603302888
H           -3.44446743497981       -4.57483460787142        1.58094067504824
H           -3.03055923304629       -2.35632725389290        2.29724286992699
H           -2.17991801718499       -0.08606361747671        2.18167427366046
H           -3.10835270632534        2.33382314814169       -1.74460144168885
H           -1.69307586368739        3.12247308062219       -1.06297609062192
H           -1.85833275099739        0.12041340796648       -1.59188846439340
H           -1.27476767009844        1.30642654952866       -2.76214192449343
H           -0.69135976337021        1.52197199842176        0.85322343364545
H            0.58154551039692        1.97032961582573       -1.18047588375357
H            2.41960919155679       -0.62523072767637        0.18233632724107
H            2.44806125812174        1.01116323081487       -0.49727578759942
H            2.51894973439567        0.04806568837367       -2.79597497971397
H            2.46981357240714       -1.58497792712362       -2.10989214338017
H            4.55272144426625        1.49645880020785       -2.54540795139548
H            6.31680481164454        2.18588790798098       -1.01626290901634
H            7.49392261513125        2.68098021750291        0.99295515707170
H            8.54767135619081        1.87708200457131       -0.20704539091750
H            8.89963459362780        1.73187485548132        1.53316196721037
H            6.06376570222812       -3.39948460137989        2.32411384622734
H            4.51476169734492       -2.88747539045953        1.59182401444857
H            5.79989592181273       -3.55652999844634        0.56225886874878
H            4.72502841615563       -1.07791385147924       -2.66073523566277
H           -0.22752892376991       -1.72792675901158       -1.69576141796029
H           -0.86920836168988       -1.25667556328022       -0.10945726385948
H            0.71813897221834       -2.03264707139783       -0.23154377672066
H           -4.72276349958041        2.65320204208975       -0.07525604893572
H           -3.83661143477384        2.64850882156760        2.83401850090222
H           -4.90435698238915        1.45583552254536        2.08183817446013
H           -5.42221577126201        3.13378441121743        2.23198926400105
H           -2.79487417349038        4.51008479762237        1.37713711050549
H           -3.23559610811655        4.60958578265891       -0.33638173159671
H           -4.44342210367689        4.90341879213071        0.90413497479262
H           -0.71763150102887        2.77759589435539        2.82825646247151
