25
 energy: -42.151816696066 gnorm: 0.005879032825 xtb: 6.6.1 (8d0f1dd)
C            3.23899096799255        0.98296077261046        0.01841288101724
N            3.41086339429512       -0.36838140494402        0.03200056149867
C            2.66289594274020       -1.36972215303657        0.02668991339516
N            1.28151844826294       -1.51635896407619        0.00073183242415
C            0.18502523516115       -0.71170394954557       -0.00101680464027
C           -0.04419028930839        0.68588474456888        0.00403951425732
C            0.78055966337701        1.78829572661080        0.01282564385279
O            0.76302788065583        2.96836748581150        0.02457407683267
N           -1.43735389731931        0.86381978571208       -0.01021720458503
C           -2.18028497841512        2.09920515904949       -0.00983876387702
C           -2.06571672419207       -0.34681196669039       -0.01911012071372
O           -3.23773596017865       -0.58481714164240       -0.03048872068260
N           -1.03133001499354       -1.30997081070289       -0.01260341317265
C           -1.33105791089274       -2.71907308207295       -0.01227799406213
H            3.67417488889572        1.44428362373461        0.90791086489901
H            3.68459963022630        1.42723297514635       -0.87572406886332
H            2.10112008965929        1.30415693272843        0.00821169733032
H            3.15897455382867       -2.33371237532387        0.03976175880300
H           -1.50706815177634        2.95108428775404       -0.02153208212153
H           -2.82768038200325        2.13122996141808       -0.88760473377963
H           -2.81192922291294        2.14388339425870        0.87906554504879
H           -0.94794642501492       -3.20698298545039        0.88601308145186
H           -0.94638678779551       -3.20899317296574       -0.90867468084507
H           -2.41935586302046       -2.80105230495024       -0.01337637726690
H            1.00671742682798       -2.49458599640097       -0.00660078830440
