  25
        -42.05635731
 C          2.4764029517        1.1115696234        0.6199421652
 N          1.6158897207        0.0587651923        0.1059340237
 C          2.2171390878       -1.0537974436       -0.2774774162
 N          1.6187039737       -2.2311918800       -0.6194001500
 C          0.4426697978       -2.7004153691       -0.1922848594
 C          0.2693889871        0.3414781081        0.0098605936
 C         -0.1918805080        1.7706568304       -0.0608389293
 O          0.5530492560        2.6894722374       -0.4132954685
 N         -1.4550631777        1.9260077251        0.2816168523
 C         -2.2353405392        3.0659736653        0.1635507040
 C         -0.8054452824       -0.5799676708       -0.1415382166
 O         -1.9364025738       -0.2912893265       -0.4473494369
 N         -0.5721053872       -2.0113138203        0.1915301101
 C         -1.7435102051       -2.6677359254        0.7361230902
 H          2.2142624917        1.3218477260        1.6580701798
 H          3.5211445106        0.8210641077        0.5615215760
 H          2.3152612453        2.0304055985        0.0464864026
 H          3.2981790581       -1.0608714705       -0.2677008022
 H         -1.6651998640        3.9285821051       -0.2089268252
 H         -3.0598525703        2.8597097258       -0.5294411182
 H         -2.6781820002        3.2949861340        1.1387700291
 H         -1.5400298274       -3.7279600057        0.8504231993
 H         -2.5908214127       -2.5132069756        0.0659190658
 H         -1.9896602154       -2.2243137826        1.7012664137
 H          2.2374843147       -2.9360918197       -1.0108996698
