72
 energy: -99.696648413901 xtb: 6.6.1 (8d0f1dd)
N           -1.58617376011206        2.92507742033311        2.29743483287007
C           -1.57536649905470        2.18293128486273        1.28104207042506
C           -2.72560743409508        2.07195276822473        0.31665480434756
C           -3.31284891229553        0.67054786392800        0.40842999740276
C           -4.28074868520006        0.26097526027854       -0.51181426283979
C           -4.83307542149249       -1.00395290071066       -0.46209669961260
O           -5.78525055417840       -1.47887792566719       -1.31251988660257
C           -6.18847691080690       -0.68067268475173       -2.39632476595051
C           -4.40971872541663       -1.91617788500078        0.53034106337968
O           -5.00269322563573       -3.14330657068224        0.48967339597896
C           -4.58806766167490       -4.12566047383054        1.40202182646384
C           -3.45646448400792       -1.50994802090415        1.44347429081779
C           -2.91984101938252       -0.22805691186913        1.38353959496759
C           -2.14300461528149        2.31089260515886       -1.10191419650620
C           -1.32516307821312        1.15128629261887       -1.67688194247419
C           -0.01387976940791        1.00812038240741       -1.02224970533587
N            0.49477718809920       -0.22924833151755       -0.67316803965961
C            1.88035330225705       -0.19731113601648       -0.20985296736151
C            2.94959246255673       -0.47959984710294       -1.30316683761696
C            4.37245595055835       -0.36133209783225       -0.81609932929207
C            5.11412877411313        0.79175130669701       -1.00835993503781
C            6.43455575866716        0.87827903258481       -0.58360386682309
C            7.04348730509949       -0.19064105412043        0.04815176842202
O            8.32966583001200       -0.22628130529976        0.50137930864885
C            9.14709348331578        0.89818755981304        0.30473635291138
C            6.29886712672455       -1.37341401691905        0.25833404404253
O            6.98043880594904       -2.37354999832039        0.88693305233401
C            6.33149175164601       -3.59699406097546        1.11421004074161
C            4.98790676292805       -1.44180253769812       -0.17583361518430
C           -0.35987027310679       -1.42191260382828       -0.74396954197932
C           -3.85717778072816        3.10499154744425        0.57538078517324
C           -4.54702532130498        2.85943240794645        1.91515437545922
C           -3.37283760119310        4.55202899703807        0.50424745053263
H           -4.60163985472290        0.94944125242442       -1.27581702614478
H           -6.66767062133610        0.24606040616701       -2.06474670172195
H           -6.91319621442222       -1.28024712551636       -2.94614869859786
H           -5.34797846872455       -0.43646135451743       -3.05611128244149
H           -4.79178621086765       -3.83074860337619        2.43704426317105
H           -5.17306133747682       -5.01224401368266        1.15979346742993
H           -3.52144761342874       -4.35630481327230        1.29195170466680
H           -3.11548810436343       -2.18236032431116        2.21608946164523
H           -2.19207836160505        0.05926582783832        2.12712819537308
H           -2.96530209842966        2.51231958511704       -1.78651848228903
H           -1.50353092869534        3.19365688790752       -1.07351913395004
H           -1.90104653278144        0.23424041493228       -1.58405422715539
H           -1.17536316485995        1.34198168874857       -2.74938916424393
H           -0.71073733928959        1.58332041881788        0.94826868382235
H            0.68103017808548        1.82948873898739       -1.04492505957676
H            2.04425369119930       -0.88132611367474        0.62855155946081
H            2.08701422426593        0.81928475371991        0.16308701371599
H            2.79237018975129        0.22276248155704       -2.12309994497361
H            2.77666162427847       -1.48882595052451       -1.67638313950214
H            4.67189223173782        1.64141147585390       -1.50694634904950
H            6.98226084072372        1.79085960512243       -0.75904071587671
H            8.75018902721188        1.78381748519856        0.81234297719617
H            9.28297359769475        1.12157942476158       -0.75921973394974
H           10.11087536647239        0.63613072601675        0.74115790694566
H            7.07189308370677       -4.23242163260551        1.59823747698832
H            5.46595460397757       -3.48306510592652        1.77683366594049
H            6.01222188595303       -4.06656093464490        0.17746552677072
H            4.41981284681600       -2.34875461526126       -0.03299024004044
H           -1.23914804672360       -1.52665571173301       -1.53318557848190
H           -1.02240242080509       -1.48668695913196        0.11279064505965
H            0.32111000875607       -2.27248025337159       -0.64741719282233
H           -4.60099271954331        2.96126290812713       -0.21845322208164
H           -3.84127058378267        3.01867713509294        2.72282631008484
H           -4.93100961785745        1.84369849396197        1.97397426899657
H           -5.37784893719421        3.55170308068167        2.03302045503406
H           -2.63010677950612        4.73872946915682        1.27272242224480
H           -2.94526953432388        4.78601968901513       -0.46771525437867
H           -4.21289490151204        5.22255446118982        0.67068306142326
H           -0.73178724384266        2.92180596843195        2.85108251121431
