25
 energy: -42.161890953352 gnorm: 0.009088514082 xtb: 6.6.1 (8d0f1dd)
C            3.19932618836057        1.20723899973969       -0.04087809281000
N            2.30013378181954        0.08313143767541       -0.02676924107525
C            2.63342178488621       -1.19717721658216       -0.07124339676889
N            1.52538819395747       -1.96456971269261       -0.03815477790715
C            0.43809970335040       -1.12981034390327        0.02444086854722
C            0.93209911693540        0.16286358894653        0.04250101329809
C            0.04453872241859        1.31773105326290        0.11893906000150
O            0.39742846406054        2.47179506957770        0.12825946047195
N           -1.28716352091448        0.89047773418425        0.19430206746311
C           -2.33064079820595        1.94838153278249        0.22813578918310
C           -1.76942105916008       -0.36256714034182        0.16327266183523
O           -3.06300248692276        1.95406493535618       -0.93100762024097
N           -0.88826337923881       -1.38479775348315        0.07231826843380
C           -1.39105166522591       -2.74195244397018        0.01658184257420
H            3.70184020527996        1.30225162780526        0.92305616469670
H            3.94985308620235        1.07742454447151       -0.81919818739806
H            2.62380068394800        2.11485767127506       -0.22477290523871
H            3.63637051900795       -1.57678418025143       -0.12475483134110
H           -1.81544912538175        2.90973144973136        0.30355358894768
H           -3.65185237555134        1.18478055013331       -0.96471105947165
H           -2.93979560085228        1.76651486194107        1.12484555171825
H           -1.07007814972925       -3.30992178582847        0.89040126043357
H           -1.04759250836324       -3.23763616013532       -0.89179907526350
H           -2.47715598222479       -2.69282031865951        0.00620565117045
H            1.50959771564486       -2.97496945943583       -0.07235244335884
