25
 energy: -42.182850591016 gnorm: 0.005125129153 xtb: 6.6.1 (8d0f1dd)
C            3.32601361112103        0.89763082740716       -0.05140917279890
N            2.39436808614233       -0.04214912540325        0.00910586017547
C            2.58440254746767       -1.37279287607071        0.14878549538708
N            1.37479807646799       -2.02884345302908        0.15653689173941
C            0.39796817480798       -1.13644897338482        0.01786395871305
C            0.99858629887581        0.14633512290332       -0.04521798408304
C            0.18668508765544        1.27033278822416       -0.01910222637742
O            0.58823963562700        2.52712270797499        0.06596550777655
N           -1.15457489065891        1.06324118023812       -0.05876084187076
C           -2.07561451245355        2.19140553157477       -0.05512912931114
C           -1.78159176109828       -0.19550902448458       -0.09156089027152
O           -2.97243701737314       -0.28952579765813       -0.15275441155429
N           -0.94605247930796       -1.30534742128956       -0.02849394757949
C           -1.53798025691724       -2.63042234598623       -0.01510712331374
H            4.35571802442234        0.60033132282853        0.03272229242795
H            3.10258546828812        1.88106875841239       -0.41243251561551
H            1.53877429322245        2.59770412272945        0.25860957876620
H            3.53298421085029       -1.85167839188211        0.23922432055035
H           -1.51292533985652        3.11869141122273       -0.06040889125503
H           -2.71674242729951        2.13467947545419       -0.93402121086901
H           -2.70868567692061        2.14064365747721        0.83016430720774
H           -1.30027185856388       -3.14412232909174        0.91677992338308
H           -1.18082815171603       -3.21228563746021       -0.86492903172067
H           -2.61756932503017       -2.51185050523176       -0.09123737153665
H            1.28458169634733       -3.02997248387485        0.23597822993042
