  25
        -42.16117719
 C          3.2179895106        1.1387004271        0.0398740757
 N          2.2751056375        0.0522212309        0.0138222579
 C          2.5538723120       -1.2511797301        0.0006480829
 N          1.4103267169       -1.9647654699       -0.0170489950
 C          0.3638453476       -1.0832692159       -0.0137412277
 C          0.9070002937        0.1949620089        0.0037218760
 C          0.1016404579        1.3858847901       -0.0150179608
 O          0.4880408440        2.5382512161       -0.0346200445
 N         -1.2606058025        1.0430947754       -0.0080255568
 C         -2.2209855002        2.1353789141       -0.0089434001
 C         -1.7534697867       -0.2128132648        0.0020334044
 O         -3.0746658307       -0.3495585536        0.0639534013
 N         -0.9825475102       -1.3440861136       -0.0323103018
 C         -1.5101033876       -2.5909358927       -0.0078473500
 H          3.7794593661        1.1319807419        0.9748091766
 H          3.9167934241        1.0531850751       -0.7917237196
 H          2.6659781006        2.0752390526       -0.0397761622
 H          3.5380608338       -1.6749558511        0.0010436495
 H         -1.6512579010        3.0628213022       -0.0067196298
 H         -2.8491091730        2.0817670407       -0.8962034639
 H         -2.8525863669        2.0793501209        0.8760299530
 H         -0.8469776874       -3.4203772955        0.0562154265
 H         -2.5081510607       -2.7668514333       -0.3459000932
 H         -3.2985247802       -1.2564543749        0.3391043575
 H          1.3440822048       -2.9720292408       -0.0358060354
