25
 energy: 4.275723064731 xtb: 6.6.1 (8d0f1dd)
C            3.37379839644090        1.12421272432302        0.13289090668852
N            2.35674656933684        0.11901176264001        0.00310177024795
C            2.59409690547044       -1.26473895299189       -0.00560470049700
N            1.36666563514127       -1.88339724808294       -0.07065946479822
C            0.38831910330838       -0.95516951222766       -0.01518369701268
C            0.93142345592691        0.32264201431599        0.03963931336689
C            0.03631591894051        1.44295245725596        0.07608051219531
O            0.31655613020542        2.63093725800506        0.05548864725700
N           -1.46022673573774        1.08767065424917        0.03123489128128
C           -2.43367609970363        2.17286136476399       -0.16786876817940
C           -1.92532171508234       -0.17507765234105        0.16949013882025
O           -3.09717754200998       -0.46902227316625        0.19338443997414
N           -0.94704199713856       -1.21271778266865        0.06182149576277
C           -1.38713086352715       -2.59563869382194       -0.07808666801261
H            3.69579952395718        1.24709482057174        1.19007819019148
H            4.24994191202394        0.86475841527760       -0.48297046959513
H            2.98423447100901        2.07608814455122       -0.22379536592005
H            3.53519117371455       -1.78645931532544       -0.03550627307308
H           -1.82493860319601        3.07513545107904       -0.26874536364334
H           -3.06951509922368        2.02465087279302       -1.05793888288540
H           -3.09663978558776        2.28010306616703        0.69584384069926
H           -0.94256661275857       -3.23850124532398        0.69345678744950
H           -1.16522101689193       -3.00081587366678       -1.07810805759530
H           -2.46875222866276       -2.59695277232665        0.08014588130393
H            1.23080736927767       -2.88565904806807       -0.10120648595662
