25
 energy: 60.778021223037 xtb: 6.6.1 (8d0f1dd)
C            3.81379632963600        0.84239491560575        0.15288068666003
N            2.84566410904871       -0.20407055016938        0.08277331359986
C            3.09725777751993       -1.52816862928638       -0.03915918471024
N            1.91478379048240       -2.20281686922170       -0.09688636813239
C            0.83005449393118       -1.32644402340859       -0.03553562464976
C            1.45345084648263       -0.00218039859755        0.09092886608949
C            0.84045126425188        1.15555854327807        0.23441349189678
O            0.24554365803266        2.17205198509167        0.34093042018631
N           -3.03870324676772        1.68764645846070        0.00161956642274
C           -3.57414321510702        2.94916374002456       -0.32824728756372
C           -3.17497316917491        0.60139204505166        0.45225499285323
O           -3.12626651237765       -0.48499935932618        0.85562689123241
N           -0.41798082978058       -1.52862265982817       -0.07219216442909
C           -1.05318722228343       -2.80542994817472       -0.16922494463297
H            3.71211891146232        1.38774711325920        1.09560624135137
H            4.81524764715229        0.41867143996821        0.09255409385258
H            3.67418964573930        1.54856707912263       -0.67028144229285
H            4.06946636430458       -1.95885868070188       -0.09544719276704
H           -2.73972378174477        3.64020060603188       -0.45058886964599
H           -4.12883322475363        2.89078592508754       -1.26823627549707
H           -4.23710530425862        3.32013739269229        0.45754402341520
H           -0.48374539639708       -3.64243288969963        0.25643743548175
H           -1.27133655792435       -3.02592033419824       -1.21908471909850
H           -2.00528454065456       -2.71526225807560        0.35463679586411
H            1.85147246815315       -3.20008185424169       -0.19628883329143
