25
 energy: 33.125729004866 xtb: 6.6.1 (8d0f1dd)
C            3.47171181134966        1.06675651810378        0.16278922283679
N            2.39783051951809        0.11442775480203        0.05672054444375
C            2.62229013333963       -1.23957891729963       -0.06218206944968
N            1.41948321561112       -1.87816523983527       -0.14616447309923
C            0.41933665879498       -0.96989063409232       -0.05310389011171
C            0.96126336006904        0.31996330160425        0.05535691636218
C            0.08940969327680        1.44080637556177        0.12164197259000
O            0.25903647906354        2.64025765073064        0.23070541365203
N           -1.64048541845853        1.15435990288958       -0.04162512767919
C           -2.65280153899072        2.22081946138613       -0.27319714310678
C           -2.01622641823818       -0.09357810516112        0.18975912726779
O           -3.10549352104276       -0.53606551655260        0.43481920394511
N           -0.91880762383263       -1.17561273908666       -0.02606831984438
C           -1.31948598765484       -2.56472715754937       -0.12114204665853
H            3.63364703592256        1.39127254676430        1.20388167348336
H            4.39209770271962        0.64587948343466       -0.27594007299142
H            3.24805258976975        1.98454212642243       -0.37115649158736
H            3.55153149882730       -1.73356917433380       -0.20323340501709
H           -2.04175671947009        3.10831073372956       -0.46383120605610
H           -3.35253093509002        1.97408717117429       -1.09607113865491
H           -3.30409682839200        2.46302965257473        0.56803893605631
H           -0.73685863054793       -3.24505951142493        0.52941362581015
H           -1.25339518169127       -2.87180779940454       -1.17049877531419
H           -2.35944538798120       -2.65836646183116        0.21060539439161
H            1.31384711552520       -2.87043567975875       -0.23907974942150
