25
 energy: 71.181310208106 xtb: 6.6.1 (8d0f1dd)
C            3.53665747926982        0.99876601700563        0.17644365185646
N            2.46676636377776        0.04972715432158        0.11421965846248
C            2.69333414065768       -1.28259896948045       -0.02648080725560
N            1.50044216998701       -1.93550296936372       -0.10993705705655
C            0.47305820931639       -1.03322560969612       -0.03165977342938
C            1.05356153327124        0.26544432958955        0.09579837202491
C            0.32017910883046        1.41651384337674        0.07693881873799
O            0.32036418218526        2.59316879745526        0.29599415167725
N           -1.90724782834431        1.24347443698219       -0.07738103397185
C           -2.81740233575989        2.34966829082244       -0.26385235986334
C           -2.26024815255940        0.09800925903635        0.24494997644465
O           -3.11282615970816       -0.60454166414051        0.63598791972499
N           -0.81316848665458       -1.21471161424125       -0.01845105692963
C           -1.29348217425421       -2.57251332803681       -0.14548310240580
H            3.58545981052102        1.48382881768753        1.15422874108100
H            4.45506072099995        0.47521661989063       -0.11980611227325
H            3.41761145898470        1.85829084741922       -0.47176642988617
H            3.62914096177459       -1.71511675404872       -0.27137953805347
H           -2.17198805338284        3.17024183931187       -0.55853491121503
H           -3.49725585609388        2.13192078297623       -1.08436770720166
H           -3.42244235563302        2.59744572528977        0.60694750346966
H           -0.62623363427578       -3.25789625706485        0.39437938656244
H           -1.35088517494143       -2.78954035731090       -1.21787267011656
H           -2.28324315600895       -2.69905236777281        0.29582217896953
H            1.41921910765911       -2.91657580112320       -0.27166928715770
