72
 energy: -99.365808398326 gnorm: 0.003603306845 xtb: 6.6.1 (8d0f1dd)
N           -1.76853202855702        2.75763937658111        2.27760356445760
C           -1.74243773505546        2.04851562231336        1.25019542011793
C           -2.91268569822133        1.83627963894165        0.32910414195884
C           -3.36780823715142        0.38647287897108        0.40961562016945
C           -4.28376085303353       -0.10476096200396       -0.52273666571985
C           -4.74525187717153       -1.40941355249135       -0.46623512593289
O           -5.62744875462140       -1.96182032007814       -1.32279530065039
C           -6.19462581704915       -1.16958873830721       -2.33940918630352
C           -4.27736998866189       -2.27365497592543        0.56178588509798
O           -4.78095503882170       -3.52187168460755        0.54102612167397
C           -4.42920070434352       -4.42262289679218        1.56579541955792
C           -3.36827714590050       -1.77870217178125        1.48400112407841
C           -2.92107076972476       -0.46633824110349        1.40791088835780
C           -2.39846285773778        2.15003007097337       -1.09990077738435
C           -1.44059659363570        1.09094935486275       -1.67299812302452
C           -0.06815646535810        1.18405741274639       -1.12809679494722
N            0.69105352544907        0.17198023194260       -0.76309815220295
C            2.09169513110118        0.36953947847974       -0.47110920098739
C            2.96804524816252       -0.01767854216248       -1.67823388900753
C            4.41778890935561       -0.02832176223818       -1.28443605393895
C            5.09842599053017        1.15792723291671       -1.04073088940767
C            6.42517503691302        1.16176143148276       -0.65103334667325
C            7.10892917405390       -0.04483597284122       -0.49690783851903
O            8.39714840781388       -0.16741817186537       -0.12134523177832
C            9.16533088134637        0.99202153907581        0.11224383500548
C            6.42701642509806       -1.24320603290175       -0.74348952563897
O            2.86985150193022       -2.05575839282693        1.36770567438338
C            3.94118192893338       -2.30810044530752        1.86324937836024
C            5.10430222851323       -1.22947937745293       -1.12762111646960
C            0.19684314745853       -1.18209882164346       -0.68346423439501
C           -4.13186807014952        2.74653726906212        0.66475237993495
C           -4.72686023372425        2.40342534336786        2.02832312429728
C           -3.80402435713348        4.23594072123885        0.60587926699721
H           -4.65345739905659        0.54744227965789       -1.29627251497572
H           -6.74624169737561       -0.31990722815881       -1.92599501571681
H           -6.88555790253592       -1.82379371425164       -2.86743208493443
H           -5.43427801586796       -0.80847797865821       -3.03963511364291
H           -4.72162981011438       -4.04322356610768        2.54928849679515
H           -4.98062036217466       -5.33626790658905        1.35268419014557
H           -3.35605902491698       -4.63737221841458        1.56060087622369
H           -3.00595603874890       -2.40654480184839        2.28150459680384
H           -2.23565630878010       -0.10997127599348        2.16113105205737
H           -3.25517095132143        2.23454705536992       -1.76717161188422
H           -1.89521490009731        3.11746187750757       -1.08962575515691
H           -1.86378534371395        0.09640774711150       -1.54042751609808
H           -1.36604201665804        1.27907384648184       -2.75189574273164
H           -0.83443417692461        1.53302378935118        0.88644740742263
H            0.39998666898126        2.15867482906935       -1.14487474082329
H            2.36525180142813       -0.26036046356869        0.37851208652332
H            2.26847675037258        1.41473930929830       -0.21122276004272
H            2.79824760011957        0.69346301996358       -2.49014501695837
H            2.68142277101114       -1.01135755957171       -2.02321061808410
H            4.58992880276871        2.10290007360301       -1.16686717744839
H            6.91779341802248        2.10438466715556       -0.47490447322590
H            8.76249000243888        1.57787901199780        0.94397630032225
H            9.22581304329494        1.61850024068177       -0.78229797459364
H           10.16086118241725        0.63672381125494        0.37122571020898
H            4.69378288370674       -1.53085617416791        2.05902511426336
H            4.23120811511300       -3.32670895306034        2.15060474973128
H            6.96360420806396       -2.16812401758480       -0.63514893036584
H            4.59829332670096       -2.16443966669941       -1.31804180999259
H            0.03179958951117       -1.60201947207380       -1.67763869976097
H           -0.74553926137361       -1.21066137111730       -0.13235436037105
H            0.92614478492151       -1.79375295219978       -0.15665149310810
H           -4.89261862303798        2.53665616133568       -0.09599924013259
H           -4.00446019295920        2.60851266217943        2.81185474849950
H           -5.01669004736912        1.35676112821680        2.07939893622791
H           -5.61000679582141        3.01192159589578        2.20373249217026
H           -3.02471977795836        4.47924473436772        1.32150533550501
H           -3.48989954832097        4.54494213901696       -0.38757881170548
H           -4.69193933934278        4.80631755683839        0.86535786210487
H           -0.91200612757563        2.85099476621565        2.81425595825861
