72
 energy: 0.000000000000 xtb: 6.6.1 (8d0f1dd)
N           -1.48595306415885        2.77827650711101        2.23626216949739
C           -1.55936513370240        2.15893394488165        1.15450875838813
C           -2.74249844407858        2.05674778261735        0.25158737335676
C           -3.31751405082592        0.64766467695428        0.33707620544762
C           -4.30328166457406        0.24765572236089       -0.56822900207632
C           -4.85491182906740       -1.01877360889913       -0.52018698484402
O           -5.81896231573856       -1.48475818456066       -1.34585041530115
C           -6.37500973224629       -0.61571066918845       -2.30545232818152
C           -4.40841641157393       -1.94011746251703        0.45967093931671
O           -5.00201303542968       -3.15868598252825        0.42718869237114
C           -4.66383461180340       -4.10342153849171        1.41132228924646
C           -3.43409108865124       -1.53943622914810        1.35423078974407
C           -2.89470697026324       -0.25797865275948        1.29288504689976
C           -2.18435047388161        2.29489508873264       -1.17334557693493
C           -1.26932774405192        1.16310329701091       -1.66246427013620
C            0.00019893611797        1.06844842387298       -0.92076337215364
N            0.61657792866251       -0.05576010093265       -0.56833933924585
C            1.99930617662675       -0.04892975352828       -0.16249831104907
C            2.93959050661812       -0.52690240189704       -1.28518454151339
C            4.36782828973014       -0.42070761807962       -0.83932842768862
C            5.08476989184179        0.74266213119906       -1.03954015975735
C            6.39613645673202        0.85049346156628       -0.59980907588335
C            7.00874744926484       -0.20189266872254        0.05890896483565
O            8.27644039954308       -0.20937214902152        0.52697268752706
C            9.08207327440547        0.92819914791763        0.32269393556270
C            6.27668093188082       -1.39674447615694        0.27706899602459
O            6.95692498515787       -2.37631289356258        0.92417119926480
C            6.31916826517554       -3.60996551838919        1.14591229160440
C            4.97160502925904       -1.48526005884036       -0.16839307234616
C           -0.10353607093193       -1.32620499273002       -0.62511068739484
C           -3.86327669997461        3.08266456958431        0.58271922878585
C           -4.49595469035956        2.78844509729364        1.94255614282427
C           -3.38610891900566        4.53039075301380        0.53815102938231
H           -4.65251375917328        0.94557660457722       -1.30951292944411
H           -6.82946515696140        0.26202210313268       -1.83727906225925
H           -7.14592826005110       -1.19584764342999       -2.80914529351657
H           -5.63012304852439       -0.29232119819296       -3.04006126999476
H           -4.88057697393607       -3.73171773610528        2.41793436096198
H           -5.28722475381244       -4.97222645052763        1.20573415224859
H           -3.60913708300750       -4.39235003907464        1.34821429758249
H           -3.08673823073250       -2.21353662986927        2.12223739826773
H           -2.15887326243330        0.02577301444034        2.03189206975034
H           -3.00885719454255        2.39309110740268       -1.86957763119312
H           -1.62846633124779        3.23377533682471       -1.18673007677566
H           -1.81660264826464        0.21796909010793       -1.60656876068601
H           -1.01877516846454        1.36163429457993       -2.71071471005915
H           -0.68572423167213        1.62392477112613        0.68410463953058
H            0.64389733722258        1.97023561496975       -0.94386691432156
H            2.12804615148778       -0.68936211635286        0.71365748186700
H            2.28363361676551        0.96405686609203        0.11824007344923
H            2.77785980813476        0.09942697007726       -2.16819827354322
H            2.69959252596688       -1.55479530792244       -1.54255593833839
H            4.63542163224443        1.57731106344092       -1.55771241002779
H            6.93511718654837        1.76539435302515       -0.78409765562130
H            8.67104263089343        1.80948625866909        0.82474423441486
H            9.21311886579336        1.14211805436198       -0.74269712187702
H           10.04839784404935        0.68382534045443        0.76182083122609
H            7.05788832780027       -4.23147204146714        1.64783706731271
H            5.44050510223841       -3.50159946867700        1.79128267025517
H            6.02441540719711       -4.08797948560016        0.20592125011171
H            4.40750832411442       -2.39199385087465       -0.01534944449005
H           -0.26373150571429       -1.62543761217943       -1.63288716926646
H           -1.13989272066365       -1.27686273461346       -0.24579568657876
H            0.52946043023616       -2.08042018048627       -0.14289243244251
H           -4.63400077816735        2.95521734316319       -0.18596673251734
H           -3.76335166319518        2.92412777392537        2.73161783806649
H           -4.87733640521757        1.77265753420071        1.98472876848924
H           -5.32313081009600        3.47309665571105        2.11568885335394
H           -2.59511402798996        4.69387118528130        1.26426684827861
H           -3.02958197283697        4.81058586359603       -0.44811503238192
H           -4.21632276463276        5.18712722458615        0.78856766007330
H           -0.61280096931591        2.80144591223657        2.74893733569413
