72
 energy: -99.595127449130 xtb: 6.6.1 (8d0f1dd)
N           -1.61624167219805        2.89196808449615        2.28935921294745
C           -1.59018631570476        2.20155536660499        1.24836379408981
C           -2.74232371227604        2.07213571145191        0.28757764800200
C           -3.30854364023828        0.66123466456587        0.36086212147628
C           -4.28064096425525        0.25600545877775       -0.55796008865330
C           -4.83664680839031       -1.00748004038734       -0.50738894562916
O           -5.79392812368195       -1.47536827817363       -1.35007264963741
C           -6.36146685745131       -0.60050414437408       -2.29243196008290
C           -4.40871413687410       -1.92333319682339        0.48241183771466
O           -5.00567902438179       -3.14246250138676        0.44539151379454
C           -4.67694902278034       -4.08862470192367        1.43201012103491
C           -3.44619714680887       -1.52111971667298        1.38759869273722
C           -2.90776147649258       -0.23978789904294        1.32926627824228
C           -2.15927823274583        2.33373644600371       -1.12712728007471
C           -1.30524728100447        1.18812550302277       -1.71582132669113
C            0.04824498801739        1.04779985685640       -1.12628782181351
N            0.59209791150758       -0.07378544992095       -0.66089841129311
C            1.96687630897583       -0.10305009997374       -0.23065960651772
C            2.95533682325210       -0.65093506460899       -1.30351630098409
C            4.36158909047322       -0.64086168896731       -0.77687326364502
C            5.14542595667879        0.51174830041325       -0.89567451917549
C            6.41466914339482        0.55359131570215       -0.39140990122041
C            7.04905590638347       -0.54126014942561        0.28354620292588
O            8.20659309317733       -0.38822338037807        0.70084524921986
C            9.88344275544623        2.12153595466858        0.03642676125991
C            6.19733311769191       -1.74542371380941        0.39325982325820
O            6.73841361271337       -2.82098981188799        1.02779849146217
C            5.96842253742718       -3.98599359694411        1.13126759945300
C            4.91077157882155       -1.75038421289622       -0.11813173686340
C           -0.10589622292490       -1.33598888798027       -0.72934772243664
C           -3.89818262306912        3.07517567091604        0.57669594405819
C           -4.56841859220948        2.78285063741133        1.91812673606029
C           -3.44753185158434        4.53363584092757        0.53448764172055
H           -4.61309924363987        0.94675828095294       -1.31549222670758
H           -6.81648705908342        0.27209061264382       -1.81210858219023
H           -7.13670088798732       -1.17622663910516       -2.79579411073596
H           -5.62528435034696       -0.26786925956548       -3.03230387367660
H           -4.90571857643361       -3.72029783180597        2.43688711112325
H           -5.29675284855003       -4.95762936699420        1.21717745349243
H           -3.62140407130722       -4.37766668460914        1.38152780636280
H           -3.11051382003523       -2.19145902767813        2.16271230815853
H           -2.18291228351170        0.04908036335714        2.07479940562669
H           -2.99205794674260        2.51661714306562       -1.81063166940738
H           -1.55885630814405        3.24239967739525       -1.09853555412988
H           -1.86527972299584        0.25636320480573       -1.65401712320433
H           -1.15730439071287        1.41988077104027       -2.77880884106387
H           -0.70390010554828        1.64301849748216        0.90389541772531
H            0.65939519980135        1.93641585120787       -1.06571093028849
H            2.04600479471080       -0.73312779819551        0.65837199305627
H            2.27517367779017        0.90963697163271        0.04040614220153
H            2.88618037274766       -0.00183007299411       -2.17970735788621
H            2.63635177686750       -1.65364409689648       -1.59912809842409
H            4.75252137865541        1.38273538968672       -1.40776318736950
H            7.01363378693283        1.45215976398165       -0.49738711174854
H            9.31667347004285        2.82569501502729        0.57700074990765
H            9.82305328643512        2.10130444552489       -1.01597839066437
H           10.67762230360142        1.62278187594240        0.52042992714828
H            6.59696612725422       -4.70889443587765        1.64532132258940
H            5.05198182004788       -3.84507419323959        1.72054208227002
H            5.69186548421809       -4.40018777212242        0.15291185763876
H            4.28033441351139       -2.63555608370114       -0.04730023749118
H           -0.28309247062358       -1.64963929398322       -1.76178914708259
H           -1.06820161640852       -1.25929497453479       -0.21707705044125
H            0.48933008249235       -2.09855790511741       -0.23120480728088
H           -4.64468340790842        2.92906963194903       -0.21298610908070
H           -3.85987599769741        2.93128566373175        2.72480585711689
H           -4.93835817863552        1.76115732250447        1.95560444399156
H           -5.40764789160308        3.45858690527665        2.06369678186692
H           -2.68066828562148        4.71034671950877        1.28119124174252
H           -3.06726807310717        4.80962197026928       -0.44550481419909
H           -4.29387305539119        5.17828403922717        0.75778158457235
H           -0.77322130928551        2.92595507843732        2.85253103974900
