72
 energy: 14.774285800895 xtb: 6.6.1 (8d0f1dd)
N           -1.49197374776795        2.89159758861396        2.29383163901191
C           -1.52914419828230        2.18079458689121        1.25233521574016
C           -2.70141908389327        2.09801851262329        0.30277252791593
C           -3.28770791413293        0.69707587607110        0.33896279273804
C           -4.24413420070986        0.29208381328786       -0.61402494745896
C           -4.87852221388648       -0.95120312692739       -0.65493476198840
O           -5.84019203622097       -1.44309240206822       -1.60976904728426
C           -6.82759414359733       -0.91787451482462       -2.59198088694498
C           -4.42112394681419       -1.85827575615905        0.38346695127016
O           -4.94562701722756       -3.12597158065357        0.40914837021412
C           -4.62975201172984       -4.03707659701652        1.43734378955518
C           -3.47607980686111       -1.46053406247582        1.33640367215191
C           -2.91168735624338       -0.19451017491641        1.32404371845758
C           -2.13802350206363        2.36333228896829       -1.11928942175565
C           -1.21882167502048        1.25327645809578       -1.66886346406451
C            0.06541200095934        1.17602064457104       -0.91216885805033
N            0.66176401345564       -0.04126415233156       -0.54759004365654
C            2.03428160053746       -0.06593030591499       -0.15914638682220
C            2.96639734819328       -0.55884048009999       -1.28670118907399
C            4.39160805476773       -0.45133059070539       -0.85317628814987
C            5.10539706660178        0.71587380851838       -1.04921435684373
C            6.41495987932801        0.82891738616494       -0.60328068174164
C            7.02712426761774       -0.22312425846562        0.05546300773396
O            8.30587002210417       -0.22457371058349        0.53043446197953
C            9.09473697988197        0.91780783151378        0.32507498972954
C            6.30039520857690       -1.41348771873302        0.27603688724110
O            6.98109913312707       -2.39524582588360        0.93342715572580
C            6.34380912505264       -3.62588147241514        1.15441671584816
C            4.99615043043545       -1.50722715632130       -0.17272252458053
C           -0.04109270556839       -1.28911744341706       -0.65381405981444
C           -3.83344004262865        3.10518766445879        0.63740272433059
C           -4.46456625348788        2.79488179221701        1.99313029939895
C           -3.36700530899495        4.55776286992426        0.61038184248918
H           -4.54515731956175        0.99865629159917       -1.36829104414246
H           -7.43151585595635       -0.07445825019243       -2.22225162137383
H           -7.50000814084304       -1.73416151792042       -2.87691850936855
H           -6.28408512489198       -0.55463792900923       -3.47666636934580
H           -4.88073093523097       -3.64969121135712        2.43203282949250
H           -5.23971062140207       -4.92321530962796        1.23983601228275
H           -3.57266581944718       -4.32917441048940        1.42697715025141
H           -3.14230481348060       -2.12903038266257        2.12720476004599
H           -2.19047850387459        0.08906015185771        2.08211927626072
H           -2.97649444635544        2.48874856374482       -1.81073343441931
H           -1.57211873106032        3.29340521990068       -1.10883765567780
H           -1.75197986901587        0.30054699610923       -1.62949820615816
H           -1.04793277334677        1.48922754392146       -2.73600645834923
H           -0.66565675165021        1.63741464962410        0.82396459230510
H            0.74060167001123        2.01094881300485       -0.99412994741279
H            2.15840711549230       -0.70458187154078        0.72385951852476
H            2.33135753656491        0.94505684838585        0.12240350898389
H            2.78984677257249        0.05896209482217       -2.16718622659209
H            2.71038220381449       -1.59118095058039       -1.52853834933158
H            4.64701791125568        1.54622443770355       -1.56421948680233
H            6.95061969571359        1.74757834996551       -0.78351755530050
H            8.67015279797994        1.79729004870035        0.82098154089219
H            9.22815715066696        1.13321156488526       -0.74089478817196
H           10.06226163062820        0.68860534351632        0.76857442627390
H            7.07976964801678       -4.25037528709308        1.65967648501884
H            5.46369706018021       -3.51646506290165        1.79663173353295
H            6.04972242542597       -4.10637498741290        0.21485976569865
H            4.42947694269697       -2.41136698878504       -0.01247112924092
H           -0.22697659301403       -1.58364129078740       -1.69661493906577
H           -1.00466930774783       -1.22403492067886       -0.13871738147429
H            0.54669937758809       -2.07145881938727       -0.16956279904661
H           -4.60510905381099        2.98592176554694       -0.13172471032561
H           -3.71897699492592        2.92250332092912        2.77259065838113
H           -4.83729242989960        1.77326571603355        2.02217888581910
H           -5.29735669545096        3.47129377789537        2.17614796470451
H           -2.57370144573560        4.70192915793655        1.33865839102394
H           -3.00705359884238        4.84332001516920       -0.37503744866643
H           -4.20129398185156        5.20822222820547        0.86492594382360
H           -0.59405139239773        2.85973368239445        2.77695581405346
