72
 energy: 22.626609984279 xtb: 6.6.1 (8d0f1dd)
N           -1.49031192158888        2.91282661392800        2.30583282055952
C           -1.52180717743298        2.18995579880249        1.27064827615030
C           -2.69267642339535        2.10562168990628        0.31486018378246
C           -3.28603150910500        0.70779453166947        0.34546659680283
C           -4.23565271690132        0.30177716711923       -0.61677939456590
C           -4.87405017887871       -0.94216487006770       -0.66524247190320
O           -5.81792914263990       -1.44007087399722       -1.66562377175087
C           -6.89668818859464       -0.97293500289737       -2.64301255310020
C           -4.42461407959835       -1.84578580137389        0.37897032677710
O           -4.94128266316081       -3.11676901608435        0.40814715532698
C           -4.62517018863927       -4.02645439201629        1.44163597368604
C           -3.48410653774234       -1.44656967181969        1.33919835030592
C           -2.91461786473741       -0.18416123192814        1.33425447580615
C           -2.12916551411594        2.37356981505646       -1.10689548755342
C           -1.21410672718297        1.26523248208074       -1.66828305800798
C            0.07703073965113        1.18109341065957       -0.93168178573938
N            0.66220904134384       -0.03640529540007       -0.54676164178946
C            2.03693613792657       -0.06858434417180       -0.16018690755225
C            2.97085504357710       -0.56132747819947       -1.28820839975952
C            4.39644899013241       -0.45429406296070       -0.85545467314910
C            5.11000739638634        0.71333847928723       -1.05050214706901
C            6.41941623347741        0.82671458218689       -0.60395315135954
C            7.03184929786592       -0.22567209251618        0.05434149201228
O            8.31085753732269       -0.22672204603208        0.53017921172562
C            9.09894280944745        0.91615356805399        0.32536464644539
C            6.30526499894831       -1.41560252580841        0.27493120056251
O            6.98579819255307       -2.39719783406763        0.93335941382674
C            6.34833794181711       -3.62761883053382        1.15443816163548
C            5.00103077787603       -1.50960184933544       -0.17438444521589
C           -0.04108682391505       -1.28396561774786       -0.65886093980202
C           -3.82681947619477        3.11036885043939        0.64735280101646
C           -4.45934866069531        2.79849136327785        2.00214779469714
C           -3.36256532450452        4.56324799840795        0.62071161632803
H           -4.52676375385871        1.00627755865444       -1.37366400484913
H           -7.52322212689606       -0.13618663360605       -2.29083341035800
H           -7.54680810473081       -1.82134546568777       -2.89299985809158
H           -6.37947132291737       -0.61137098882762       -3.54411489039888
H           -4.88024868399641       -3.63949750385549        2.43602663126294
H           -5.23214757638390       -4.91546274742641        1.24482056783561
H           -3.56747148241424       -4.31845365022019        1.43846331988541
H           -3.15525715998240       -2.11423848909917        2.13334499715467
H           -2.19661634169927        0.10003397129192        2.09668153878152
H           -2.96906195327041        2.50458103977215       -1.79650861113739
H           -1.55919789752006        3.30071200757862       -1.09325365992856
H           -1.74492082895633        0.31104808033786       -1.62907585385572
H           -1.05586791237342        1.50922975055267       -2.73543468957624
H           -0.66123134716797        1.63605392944958        0.85705247596769
H            0.75690974794216        2.01292480682873       -1.00393351012835
H            2.16263643582551       -0.71045292668247        0.72125227540748
H            2.33760333549761        0.94054912954479        0.12615248026867
H            2.79390199003219        0.05665360563529       -2.16851441943758
H            2.71511696001951       -1.59362617147769       -1.53115879739884
H            4.65098597317266        1.54333257360127       -1.56529419144929
H            6.95483965411583        1.74580188934198       -0.78320435733116
H            8.67334492250470        1.79533488636428        0.82103552735678
H            9.23256814342756        1.13208819571741       -0.74053319885309
H           10.06664329982016        0.68834146491519        0.76920012551129
H            7.08374903114778       -4.25241168621256        1.66029295599296
H            5.46794104970682       -3.51776086996881        1.79611945316940
H            6.05445931662887       -4.10840628145943        0.21493867739797
H            4.43416908394120       -2.41351691785542       -0.01406226126917
H           -0.22779506646399       -1.57650113830071       -1.70286083267350
H           -1.00379892920776       -1.22120097853624       -0.14288413526351
H            0.54460725317950       -2.07143580202768       -0.17772121969193
H           -4.59704593212969        2.98867684222206       -0.12274278695680
H           -3.71353111005446        2.92696026175753        2.78135365632709
H           -4.83071252226181        1.77622961751950        2.03025031530877
H           -5.29319842847511        3.47369934724928        2.18504116536651
H           -2.56950730299318        4.70589425773042        1.34961299841745
H           -3.00196858151072        4.84831606499820       -0.36460676112166
H           -4.19749766707120        5.21299631342163        0.87480772820147
H           -0.59451660465438        2.88049204748851        2.79561928210571
