72
 energy: 2.725491567369 xtb: 6.6.1 (8d0f1dd)
N           -1.49015565343265        2.85276355503350        2.27737876533847
C           -1.53557492299805        2.16891749849172        1.22039343135314
C           -2.71605834689260        2.08615892920976        0.28444258555456
C           -3.29907947714207        0.68424254797834        0.33542576248753
C           -4.26222473717699        0.27968284462872       -0.60319906736788
C           -4.86452004762235       -0.97348962804084       -0.61761544333845
O           -5.83292860995038       -1.45952592452163       -1.51665924542391
C           -6.67976526950173       -0.81927720691857       -2.48831105129420
C           -4.41099238255197       -1.88451008368331        0.40095497148548
O           -4.95961206096659       -3.13839428286041        0.40959271478558
C           -4.64046955987647       -4.05695956904135        1.42748173178949
C           -3.45787042086035       -1.48673823411232        1.33491033536135
C           -2.90451341017528       -0.21476318617712        1.30721403754036
C           -2.15717467863057        2.34097044839669       -1.14136214530275
C           -1.23454206610986        1.22624344990773       -1.67123649931362
C            0.04189684913905        1.16034473637512       -0.90259433283755
N            0.65116974209022       -0.04304587140692       -0.55352880454138
C            2.02209087763756       -0.05431926672095       -0.15908294285892
C            2.95523846037329       -0.55258483998231       -1.28372770867046
C            4.38021827422229       -0.44499145355552       -0.84793884543889
C            5.09520626031450        0.72110148778810       -1.04673320981795
C            6.40518097675295        0.83350925824743       -0.60278030665300
C            7.01681805933557       -0.21813457984563        0.05645542988819
O            8.29543850772430       -0.21992243371229        0.52975455213341
C            9.08600486142453        0.92137373433980        0.32317956520741
C            6.28998308097826       -1.40893884406869        0.27762459833135
O            6.97140912473128       -2.39096823471362        0.93288713038569
C            6.33453766086502       -3.62203022152899        1.15391518261834
C            4.98553701583521       -1.50229621755636       -0.16940837822733
C           -0.04364904795049       -1.29572456865992       -0.64279173759789
C           -3.84551771014070        3.09636022555562        0.61958321679769
C           -4.47472240253036        2.78837957651152        1.97665431148788
C           -3.37592817402533        4.54802586016621        0.59014582757844
H           -4.58523684322097        0.98257268338367       -1.35265056121700
H           -7.23934429845369        0.03837370590964       -2.08375355494370
H           -7.39641348796982       -1.55793721895825       -2.85118958785768
H           -6.07828057573827       -0.45476330174915       -3.33412651039374
H           -4.88099523653778       -3.67142764638823        2.42487295286045
H           -5.25650397025196       -4.93696053518840        1.22989813325308
H           -3.58492553882624       -4.35179340380738        1.40314396585884
H           -3.11989557451639       -2.15894447718144        2.11577019234175
H           -2.17554488538048        0.06782623766918        2.05579815387882
H           -2.99376551279848        2.45294367272557       -1.83537314948750
H           -1.59814933125947        3.27612496389726       -1.14049188092865
H           -1.77011537090602        0.27629772228635       -1.62895116457597
H           -1.03682076132780        1.44676429978463       -2.73493478717383
H           -0.67152809049884        1.64214501452687        0.76193686716401
H            0.70540781836160        2.00514627918902       -0.97888100109308
H            2.14436676419668       -0.69058233156376        0.72549533551657
H            2.31851960990901        0.95877491143911        0.11667549435161
H            2.78153458269508        0.06193636648410       -2.16746011307987
H            2.70002590455886       -1.58581495664241       -1.52278728653416
H            4.63832642549978        1.55171549474323       -1.56301672039190
H            6.94152353558091        1.75116698286679       -0.78529456300813
H            8.66371384906603        1.80172410574500        0.81945668768773
H            9.21902163628163        1.13560936122694       -0.74296127388079
H           10.05324521614368        0.68956275673932        0.76598926238340
H            7.07162814821161       -4.24584049094769        1.65800282947369
H            5.45503138826292       -3.51348158338126        1.79735490692225
H            6.04003288765122       -4.10192416987568        0.21420831457666
H            4.41992968357209       -2.40735809893331       -0.00989081198581
H           -0.22567233434288       -1.59796533693177       -1.68257867853252
H           -1.00778915292411       -1.23072350390918       -0.12838105033055
H            0.55199427585338       -2.06616590167431       -0.15285790347427
H           -4.61893257849078        2.97740754840696       -0.14829775922529
H           -3.73056511379052        2.91516693670431        2.75715290928498
H           -4.84908986175943        1.76757142625119        2.00734734806418
H           -5.30588974047142        3.46642698551204        2.15967299698923
H           -2.58195082527826        4.69514825726232        1.31680018980193
H           -3.01750672155737        4.83333532309157       -0.39590183329430
H           -4.20860804754323        5.19993716439907        0.84564978109848
H           -0.59881898314576        2.83547779241537        2.77851552115656
