72
 energy: -5.440395383150 xtb: 6.6.1 (8d0f1dd)
N           -1.49266993109932        2.78982448618373        2.24611451876416
C           -1.54727867898588        2.15483432551031        1.16322207155089
C           -2.74000826033354        2.06598332506867        0.25364500035265
C           -3.31328566911666        0.65704893597889        0.32835822988131
C           -4.29490478685245        0.25481615825718       -0.58340921248144
C           -4.85107455977223       -1.01166887245659       -0.55377523599780
O           -5.82138363644328       -1.48987424280952       -1.40019687154391
C           -6.46621015340803       -0.66290080704658       -2.34261626621124
C           -4.39936149560991       -1.92733314112899        0.43264360612160
O           -4.98300052040878       -3.15890343682948        0.40895761511726
C           -4.65752012136374       -4.08848662950839        1.41197976304914
C           -3.42989830479869       -1.52900537996342        1.33653364131410
C           -2.89097828024103       -0.24900080796125        1.28390891228568
C           -2.18639312414958        2.31055841666921       -1.17469352090956
C           -1.25774715702960        1.18860573281353       -1.66907585099360
C            0.01148876166678        1.13498745941343       -0.89702686264750
N            0.63720885218033       -0.04587478284473       -0.56043356048916
C            2.00591513343177       -0.03700801751209       -0.15860350267781
C            2.93920992718516       -0.54309129585967       -1.27972443950388
C            4.36366534944678       -0.43578858619005       -0.83972531617666
C            5.08020588036026        0.72879393359807       -1.04294302534843
C            6.39086280665914        0.84024378557904       -0.60269218646299
C            7.00140027702900       -0.21107473171584        0.05723189329297
O            8.27985355863718       -0.21337312449659        0.52836837384871
C            9.07285277915821        0.92639179177549        0.32061100420858
C            6.27444663639286       -1.40257157170845        0.27944850633811
O            6.95706455948862       -2.38493120041080        0.93145514124397
C            6.32074952062858       -3.61643220539044        1.15318667553891
C            4.96970034798965       -1.49549075690072       -0.16445073062792
C           -0.04880873087895       -1.30273160446347       -0.62570591223871
C           -3.86357552356803        3.08238681105453        0.59283723809515
C           -4.48987528779407        2.77856416387826        1.95223667328472
C           -3.38924314248749        4.53369987082809        0.55914350742854
H           -4.64161775295200        0.95455543013393       -1.32542348811717
H           -6.94675523169190        0.20495905763969       -1.87515007315896
H           -7.23354879498788       -1.27767253584632       -2.81245723451897
H           -5.77041865567359       -0.31279376349128       -3.11411669785169
H           -4.88187119541351       -3.70388970285024        2.41283675629290
H           -5.28258892609442       -4.95904002188848        1.21481533696444
H           -3.60397247484864       -4.38603446316923        1.36662391873446
H           -3.08052197657252       -2.20312677133041        2.10480433316879
H           -2.15152468317239        0.03484531664532        2.01870686422238
H           -3.01850067834914        2.40179036737725       -1.87387712878885
H           -1.63796414473164        3.25376846367899       -1.18679569085755
H           -1.79724600664410        0.24241737582372       -1.62492638809008
H           -1.01633240363625        1.39132093396222       -2.72173557802663
H           -0.68155950577683        1.65019950177293        0.66821291546719
H            0.65812016831967        1.99398594596481       -0.95284661433059
H            2.12448939092223       -0.67037185008385        0.72757617641320
H            2.30402208784698        0.97906999782532        0.11069500005747
H            2.76942014267346        0.06643059078757       -2.16866759496375
H            2.68433411261263       -1.57742999091054       -1.51476619603023
H            4.62557902383467        1.55943543047820       -1.56202507989525
H            6.92831333818642        1.75629465650383       -0.78863697790513
H            8.65417647978873        1.80826600435147        0.81743441087623
H            9.20557496865076        1.13905093887857       -0.74571744056478
H           10.03950582318898        0.69056678773154        0.76267051239624
H            7.05976907985378       -4.23874370024427        1.65570826689981
H            5.44222048660978       -3.50921940277701        1.79870532213624
H            6.02563026098096       -4.09585043439326        0.21344621477987
H            4.40544767018861       -2.40194948373632       -0.00674048905237
H           -0.22267448172080       -1.61750767055320       -1.66143132045377
H           -1.01413017255558       -1.23964515818214       -0.11413783289407
H            0.55838221562973       -2.05648790993739       -0.12905053404222
H           -4.63907228135872        2.96326873022878       -0.17307763263067
H           -3.75026767944807        2.90545610568996        2.73634565239536
H           -4.86746922807192        1.75935663595108        1.98606606624111
H           -5.31821367944900        3.45942060177120        2.13406878969756
H           -2.59512060094855        4.68847452262634        1.28361858686666
H           -3.03390543945292        4.82009921416841       -0.42771987314345
H           -4.21994518055742        5.18697631053289        0.81631699318803
H           -0.60022490787339        2.78203927101118        2.73870710455920
