72
 energy: -4.019838896807 xtb: 6.6.1 (8d0f1dd)
N           -1.49245911331822        2.81047112318645        2.25757353729901
C           -1.54429094972380        2.15916169066966        1.18292474830476
C           -2.73267602179226        2.07255195881755        0.26401526114813
C           -3.31015823901825        0.66623559549042        0.33080051555898
C           -4.28517067800135        0.26340616096641       -0.59138107345049
C           -4.85459668224959       -1.00026334703029       -0.57694059505461
O           -5.82474901329075       -1.48643333816429       -1.43817306726591
C           -6.53676727241683       -0.71599599343960       -2.39072438696335
C           -4.40230269998601       -1.91253106505117        0.42174488355380
O           -4.97506890276601       -3.15080431978190        0.40796076024154
C           -4.65203494657217       -4.07725313531594        1.41647420084565
C           -3.43889182469189       -1.51468773006415        1.33654932664769
C           -2.89570418521558       -0.23718867146714        1.29177826093283
C           -2.17683709065428        2.31997982440303       -1.16361922474389
C           -1.25061615940428        1.20031570653995       -1.67091061832622
C            0.02065125922348        1.14316232354381       -0.89880413232632
N            0.64150026013915       -0.04499286473717       -0.55828905197413
C            2.01099965388862       -0.04294159192627       -0.15869387204090
C            2.94442020302882       -0.54633570002389       -1.28102880628200
C            4.36907160109647       -0.43872935159404       -0.84261087841555
C            5.08518353278625        0.72633468346584       -1.04433074097509
C            6.39558817358647        0.83805778862450       -0.60266585116526
C            7.00647409773817       -0.21334913356405        0.05707917530228
O            8.28499351099836       -0.21548921788519        0.52891675307027
C            9.07722710210158        0.92474197513747        0.32139065470857
C            6.27951712143012       -1.40458229674292        0.27896662639793
O            6.96171234531849       -2.38686820220129        0.93209219704498
C            6.32525816447732       -3.61828364288930        1.15344336629376
C            4.97489344115892       -1.49759868278769       -0.16611840653451
C           -0.04682847077112       -1.30087704641789       -0.63134811888131
C           -3.85798860035422        3.08709225077988        0.60164849183287
C           -4.48498922228906        2.78190347684167        1.96035173035325
C           -3.38488391780555        4.53824006585696        0.56944393433718
H           -4.62407267761430        0.96431660763046       -1.33518418419076
H           -7.04393038106691        0.15013226172367       -1.94494347921998
H           -7.29029574370447       -1.37136826070075       -2.82775948919661
H           -5.87236224990861       -0.35860389410062       -3.18759701543838
H           -4.88149311179363       -3.69259529100609        2.41643816874657
H           -5.27402329938341       -4.95113645828461        1.21946807181516
H           -3.59780356224816       -4.37404298814743        1.37820974210210
H           -3.09294792560112       -2.18804691920366        2.10904132918946
H           -2.15896812457565        0.04627848697298        2.03073422533693
H           -3.01035265665941        2.41862168637709       -1.86106037531847
H           -1.62453303394182        3.26021632881140       -1.17130943415468
H           -1.78927126439815        0.25347085309947       -1.62642512466158
H           -1.02392694169011        1.40727031197994       -2.72812816530540
H           -0.67890229561140        1.64773717931128        0.69957520274161
H            0.67181628185843        1.99850776661507       -0.96204068105154
H            2.13081851520562       -0.67706872062620        0.72722861095985
H            2.30799761558223        0.97227036622699        0.11197118200453
H            2.77333433880906        0.06486950370548       -2.16816492140133
H            2.68962898756070       -1.58036394908736       -1.51734433161823
H            4.62987600980744        1.55706982631369       -1.56235616655018
H            6.93270182134194        1.75464995009003       -0.78744644549635
H            8.65733666553897        1.80608191512099        0.81802200606895
H            9.20998323144526        1.13785732444039       -0.74489201016989
H           10.04411093639990        0.69027434227418        0.76363237386141
H            7.06358296102790       -4.24118303063128        1.65646526842064
H            5.44637425219306       -3.51063438233447        1.79819655043348
H            6.03036464395111       -4.09777502171773        0.21366523458011
H            4.41018142448021       -2.40356533255398       -0.00761389813620
H           -0.22374991516419       -1.61111750122798       -1.66855859479589
H           -1.01160407905466       -1.23669499835329       -0.11860847717239
H            0.55650835808244       -2.06029541155957       -0.13661706791395
H           -4.63303242716802        2.96845488141123       -0.16477137230497
H           -3.74320621883184        2.90868447846020        2.74264449531076
H           -4.86100533822161        1.76198151239001        1.99306066715829
H           -5.31451536849152        3.46159428304390        2.14278890955630
H           -2.59069582490804        4.68983938340095        1.29467086299773
H           -3.02817959727285        4.82377305218721       -0.41716168737870
H           -4.21613054530141        5.19138218340517        0.82580128035850
H           -0.60187907983757        2.79778366143985        2.75594481861726
