72
 energy: 70.562517254260 xtb: 6.6.1 (8d0f1dd)
N           -1.38016060756493        2.98328759062828        2.38774109453304
C           -1.42464652693985        2.25958520426316        1.37309663253932
C           -2.57639059515966        2.17938695554913        0.42597171640624
C           -3.13247418729785        0.77139415515406        0.45802093143478
C           -3.99008790279841        0.37088653284300       -0.53485437662669
C           -4.60223510927306       -0.91949180147954       -0.59341306179766
O           -5.36919237529890       -1.18487595146886       -1.53723001617382
C           -8.25562142347219       -1.55066508827537       -3.61978914639989
C           -4.23732847399177       -1.82341177532548        0.50580734812964
O           -4.80784885248539       -3.06705848248296        0.47766750368564
C           -4.56411663109899       -3.95341122648343        1.53393795468350
C           -3.38269116156791       -1.39467721427359        1.49670137221903
C           -2.82053409333170       -0.11993925104741        1.47970818886715
C           -2.00110503197531        2.48573866903537       -0.98154936135384
C           -1.15015056967766        1.35588192685316       -1.59102641703991
C            0.17503147405970        1.17065638652050       -0.96794572121089
N            0.69313136527105        0.00058989571742       -0.58835857768780
C            2.07529052140147       -0.07647283498047       -0.16055754461304
C            3.00029040042750       -0.57958107767001       -1.28549357684708
C            4.43691777217473       -0.47472529800680       -0.84129176827258
C            5.15598251338791        0.68567691299788       -1.05301769369763
C            6.46819444535746        0.79855750650578       -0.61178507768297
C            7.08152696515452       -0.24904085906556        0.04960719493540
O            8.35215437618081       -0.24735311033932        0.52164477237887
C            9.14552830651128        0.90016531653613        0.33213034963404
C            6.35317326766030       -1.44450874293297        0.26911783076478
O            7.03541857854872       -2.41904221376710        0.92228601795382
C            6.40054054086821       -3.65090276139385        1.15821451690184
C            5.04727997127122       -1.53773762680921       -0.17657197167424
C           -0.03982014339869       -1.23785591098737       -0.70105022872610
C           -3.73754300409345        3.16095880623862        0.75182501996944
C           -4.38612267833433        2.82997986785352        2.09416640035776
C           -3.30119949227482        4.62036246653537        0.73333731689366
H           -4.28334054122869        1.03689902591583       -1.34082706708375
H           -8.78110553662346       -0.76895742320577       -3.12746899203057
H           -8.49839412497935       -2.57403539822003       -3.43710701179522
H           -7.56338159574940       -1.27480182449044       -4.37779362940216
H           -4.88645243870001       -3.54177320827728        2.49908360343082
H           -5.14351742816225       -4.85349184973286        1.31453529319758
H           -3.49972351336695       -4.21127826132745        1.59871597468072
H           -3.12810893637056       -2.04265663051949        2.32323397688266
H           -2.18070874582326        0.18286637695722        2.29247804499798
H           -2.83176396225722        2.67809005210669       -1.66595010213369
H           -1.39992397200874        3.39167851758432       -0.91971684637687
H           -1.72303046306482        0.43171461011952       -1.60537795070353
H           -0.95597056593874        1.65187849010633       -2.62613715036540
H           -0.58748803623910        1.62829543225225        1.04296156875317
H            0.82411468669377        2.02886139216691       -0.89714526006351
H            2.15472850176564       -0.75611485361920        0.69228373487912
H            2.42109460414000        0.91011856977621        0.15834755365160
H            2.84559142018890        0.04047979093409       -2.17160032596357
H            2.76084136943818       -1.61360673594032       -1.54663591018820
H            4.70350636465495        1.51663822084974       -1.57350978857499
H            7.00198387071711        1.71826042076214       -0.79111109541033
H            8.71275979375956        1.77414126236725        0.82955566823740
H            9.28663165188539        1.11940867037255       -0.73116482693159
H           10.10799576578761        0.66808710268437        0.78523228172956
H            7.13892952111267       -4.26580339511551        1.67026019544090
H            5.52112339059332       -3.53578079995905        1.80032423611530
H            6.10968261479278       -4.13972413270675        0.22267359765158
H            4.48502574506445       -2.44540054641174       -0.01969375874833
H           -0.23000905185316       -1.47469275377867       -1.74695413951578
H           -0.99502770659923       -1.16650895485529       -0.17460514161239
H            0.54446049669975       -2.04645609882400       -0.26284899974195
H           -4.49650925099021        3.01873400110676       -0.02472529273335
H           -3.66586577609623        2.96242989629923        2.89591921363908
H           -4.75117824982025        1.80600501847669        2.11040057582444
H           -5.22891846071110        3.49571079261279        2.26874935967247
H           -2.51713531827627        4.78120394316468        1.46660958204324
H           -2.94485491813989        4.92050573292692       -0.24925680179886
H           -4.14894048942288        5.25123605275374        0.98980696463770
H           -0.54361574945923        3.01700064525534        2.96632675228879
