72
 energy: 71.034400167819 xtb: 6.6.1 (8d0f1dd)
N           -1.42931243705637        3.00330743343810        2.35818517079135
C           -1.47680491561239        2.23939668035073        1.36567606941353
C           -2.61365093627069        2.15307820549790        0.39210214977139
C           -3.18576423387477        0.74980883833226        0.40612820612072
C           -4.06533079857424        0.35429515501788       -0.58087616444874
C           -4.69843758679503       -0.92866772356962       -0.64583642767894
O           -5.48317606961684       -1.22734951694763       -1.58227627575234
C           -7.85904352015116       -1.39499102867801       -3.30698269707243
C           -4.30759248333457       -1.82119886528902        0.46355208488838
O           -4.85935500575370       -3.07507037109468        0.45494416100565
C           -4.58692360080713       -3.97052724338061        1.50036453167461
C           -3.43493638543252       -1.39968965376921        1.44330659008024
C           -2.87092282098081       -0.12997246947115        1.43105767416260
C           -2.04338923592596        2.44679170192802       -1.01919044192028
C           -1.15890996490174        1.33632589689951       -1.63472963364040
C            0.16439134307755        1.15916169887800       -0.97329264116222
N            0.68600498321997       -0.00575971984477       -0.57036160938773
C            2.07297836603554       -0.08688210626560       -0.16155173154203
C            2.99809750633278       -0.57580469980874       -1.29417925064766
C            4.43355628907815       -0.47358666903469       -0.86136517612324
C            5.14548442491641        0.69326870698234       -1.05710783164717
C            6.45549903828923        0.80896786133857       -0.60870722102198
C            7.06984462487379       -0.24166730123697        0.05270048689748
O            8.34638229283075       -0.24272167299061        0.52638488902745
C            9.13264255986530        0.90565280057557        0.33006922244158
C            6.34094960266493       -1.43526979945385        0.27286732451689
O            7.02109259374876       -2.41269253103445        0.93230533699885
C            6.38381935451320       -3.64326030782438        1.15781864078477
C            5.03719924532619       -1.52986569914116       -0.18229546786559
C           -0.03703143583980       -1.25491606277009       -0.68904879805824
C           -3.77029533213882        3.14341079358250        0.71820489893679
C           -4.41400349127982        2.82143378142716        2.06505569567909
C           -3.32415724915665        4.60021756867144        0.69780406568218
H           -4.35758602819880        1.03580327298916       -1.37351931917477
H           -8.36951658892025       -0.58391659153750       -2.84586222830277
H           -8.15134403454470       -2.41979466393011       -3.17578875582485
H           -7.18498350614287       -1.07970719354166       -4.07148228358295
H           -4.88159025467675       -3.56878545896579        2.47955402378944
H           -5.17272867957535       -4.87210768255540        1.29187748094303
H           -3.52355841464837       -4.24471368932455        1.54709679458729
H           -3.17389581032125       -2.05026978645311        2.26313426449737
H           -2.22315161328522        0.16651381061662        2.23770632432192
H           -2.88185561484270        2.62810364616523       -1.70403674575362
H           -1.44927265629708        3.35472607293747       -0.97061331560010
H           -1.70694357609681        0.39377257308387       -1.62209081577727
H           -1.00762618012886        1.62358134226963       -2.68495457112376
H           -0.62594181985884        1.58511855266878        1.06872951199119
H            0.84200254266781        2.00595685923644       -0.95513298620671
H            2.17894276748017       -0.74856672082726        0.70509399518060
H            2.39406643821787        0.91073005260154        0.14463037414066
H            2.82979922251450        0.04736629876712       -2.17376166200425
H            2.75026395464879       -1.60717276565617       -1.54243327137164
H            4.68571985470223        1.52363388508168       -1.57147689346683
H            6.98739713921212        1.73037486482835       -0.78735173298210
H            8.70007742778233        1.78079064129125        0.82615083105356
H            9.26969304731134        1.12465964544264       -0.73439813728076
H           10.09899935347805        0.68095337276240        0.77885350621124
H            7.11877593331534       -4.26454840881582        1.66820822897160
H            5.50308706879193       -3.52907004012377        1.79766795549103
H            6.09198863673854       -4.12790340984553        0.22007502133212
H            4.46966318009491       -2.43364642688958       -0.01964834605669
H           -0.22657032707038       -1.50579715317202       -1.73585452739717
H           -0.99725563877801       -1.18724082118406       -0.16984858360457
H            0.54261869082341       -2.06001699422596       -0.23585178171051
H           -4.53295656634453        3.01206233009552       -0.05652052367055
H           -3.68009466234658        2.94939553526434        2.85607983413963
H           -4.77867689432528        1.79714164737249        2.08297693616505
H           -5.25468289090324        3.49089158141966        2.24502499710605
H           -2.53496144202816        4.75226337224299        1.42837177571398
H           -2.96368262359945        4.89191107645858       -0.28563327694135
H           -4.16714343880872        5.24032414761320        0.95150313923516
H           -0.58635363316164        2.98864585667265        2.92780664767720
