72
 energy: 69.279004396325 xtb: 6.6.1 (8d0f1dd)
N           -1.36789829619064        3.00271288664345        2.42153629490988
C           -1.38938129776986        2.28876919746247        1.39390739884770
C           -2.54590393494425        2.19261263751971        0.45015372475300
C           -3.09256211853675        0.77387239363943        0.48955958484395
C           -3.94846549422334        0.35823887293076       -0.50120279011290
C           -4.54740457558343       -0.93722201061415       -0.55081518062358
O           -5.31292689751762       -1.25561317800641       -1.47794852541572
C           -8.53741607563643       -1.58007598446741       -3.88186587299033
C           -4.18831493539210       -1.82932986966944        0.55024747519221
O           -4.77074315082437       -3.06360203884281        0.50807743874440
C           -4.54768181754848       -3.96567001883806        1.55618185111497
C           -3.33855187641587       -1.39305520803962        1.53838864828848
C           -2.78030616595845       -0.11445201746347        1.51477293231938
C           -1.97248883932587        2.50744975736455       -0.95753397461504
C           -1.13654382869217        1.37275301762676       -1.57740832532663
C            0.17327823456527        1.17537993942138       -0.92383804390993
N            0.70812877040085       -0.00053632251767       -0.59540620381158
C            2.07897745359367       -0.08261677878959       -0.16137932612106
C            3.01074000456677       -0.57901657489207       -1.28372958249712
C            4.44298743385095       -0.47849323150733       -0.84161274155877
C            5.15974999567046        0.68329111133357       -1.05038699567890
C            6.47265031892542        0.79637308472120       -0.61317254787952
C            7.08640059669667       -0.25328037711581        0.04667259304618
O            8.35969656966564       -0.25521251282613        0.52136773304273
C            9.15075158961235        0.89104348660734        0.33492240292755
C            6.35999200753608       -1.44815128537023        0.26603558828323
O            7.04377800690294       -2.42507528126623        0.91788517011805
C            6.41096520546206       -3.65687091809632        1.15656164966148
C            5.05288679938582       -1.54118111678041       -0.17549491069207
C           -0.03544555949260       -1.22888049006988       -0.71320809675865
C           -3.71315867929368        3.16653760932154        0.77320831708395
C           -4.36589295996654        2.83409640911492        2.11382911372511
C           -3.28514426242560        4.63197090731777        0.75677247296755
H           -4.24773404376297        1.01265724355716       -1.30866701573820
H           -9.07972156809605       -0.80102224338938       -3.39576664565837
H           -8.73396005739034       -2.60512422297693       -3.65190572259726
H           -7.84713153120344       -1.31829105948289       -4.65152348509611
H           -4.88003478494658       -3.56609482543884        2.52141797594831
H           -5.13468151316908       -4.85351782138356        1.31993239969900
H           -3.48972086047135       -4.24438753996971        1.63235297025720
H           -3.08877933753287       -2.03687630339611        2.36959969821893
H           -2.14514175483790        0.19496155575698        2.33088392356245
H           -2.79974900646956        2.71263440651602       -1.63707033834585
H           -1.36400151525184        3.41081607565705       -0.88537094068125
H           -1.72985145321143        0.45951746539635       -1.59943983677457
H           -0.93327405401478        1.67246063556445       -2.61319033043902
H           -0.53504424614952        1.67068853074167        1.04413287946901
H            0.82494364729997        2.03173940198314       -0.83958306180549
H            2.14483143410313       -0.75938751082572        0.69386976102441
H            2.41685130700250        0.90543758901378        0.16131933547997
H            2.85002414763493        0.04124915242900       -2.16697289157234
H            2.76074846342600       -1.60956330986544       -1.53729730764809
H            4.70490589717260        1.51393896494336       -1.56888451282925
H            7.00668741822424        1.71434730873669       -0.79865550897667
H            8.71971249688534        1.76644264679825        0.83258895916491
H            9.29879257596154        1.11346347078573       -0.72746867399697
H           10.11139335564991        0.65649883988164        0.79052473496876
H            7.15214487595832       -4.26758617899982        1.66949471599339
H            5.53102678653036       -3.54352128586799        1.79886802029179
H            6.12138069441535       -4.14984995631125        0.22277544962503
H            4.49233231893388       -2.45006436501984       -0.01852442001158
H           -0.24624648461296       -1.46629260324344       -1.75884276203962
H           -0.98537912337638       -1.15211729690688       -0.17345388090022
H            0.54728726524010       -2.03903624364231       -0.28248814165233
H           -4.46886341443739        3.02273677204341       -0.00663609817333
H           -3.65142732021623        2.96913610688180        2.92049182575915
H           -4.72880443127216        1.81007175343394        2.12723686982153
H           -5.21123600615659        3.49600983091253        2.28220429581534
H           -2.50529651839859        4.79897916773479        1.49353977819057
H           -2.93026886247669        4.94028738692173       -0.22365572607896
H           -4.13644171626017        5.25577746097279        1.01397089523235
H           -0.50646991893885        2.99154258456568        2.96493820412992
