72
 energy: 70.799013049578 xtb: 6.6.1 (8d0f1dd)
N           -1.39046507610992        2.97796966212078        2.38127470501841
C           -1.43483547394204        2.25894440083861        1.36411593347222
C           -2.58532863212641        2.17136675769073        0.41827274420133
C           -3.14617792202751        0.76745567672715        0.44609982312175
C           -4.00929381606181        0.37067046429677       -0.54567315823040
C           -4.62860971050875       -0.91667008602588       -0.60697103862704
O           -5.39503544435507       -1.18102098979182       -1.55670006646192
C           -8.15885957560286       -1.52401252358238       -3.53748584219513
C           -4.25685879748488       -1.82051315413741        0.49421626913506
O           -4.82154108612961       -3.06767428872614        0.46884973855150
C           -4.57030739446872       -3.95526746257479        1.52306842652467
C           -3.39726082274000       -1.39522125339386        1.48317530136172
C           -2.83354162384471       -0.12204475626161        1.46783885923022
C           -2.01118791260038        2.47579882590116       -0.98916378213829
C           -1.15199413639612        1.35406892106853       -1.60646753771021
C            0.17556841236886        1.16481115824153       -0.98444912943582
N            0.68904676048394        0.00002785052151       -0.59248919251999
C            2.07332075024780       -0.07963399544255       -0.16219154610902
C            2.99803395363766       -0.57930599547692       -1.28623218238174
C            4.43623703321678       -0.47482485441212       -0.84678888219001
C            5.15301681942842        0.68780673978715       -1.05413323385501
C            6.46482319904455        0.80171791943820       -0.61165725682534
C            7.07791678986989       -0.24655179872524        0.05040216907541
O            8.34994165241548       -0.24632200388870        0.52136270454061
C            9.14260834519306        0.90141054400723        0.33132743798029
C            6.34928385728681       -1.44177420340300        0.27021918466011
O            7.03061529820072       -2.41658216937885        0.92442230028555
C            6.39642421876527       -3.64886239049845        1.15807165098661
C            5.04413300603320       -1.53592377230750       -0.17766328370367
C           -0.04206508926242       -1.24088327654293       -0.69915257765890
C           -3.74580153501696        3.15583479266340        0.74390905603666
C           -4.39267440874050        2.82749664784235        2.08705555652649
C           -3.30655077110022        4.61470144847486        0.72464411599927
H           -4.29988466348410        1.03901104412195       -1.35200874341415
H           -8.67760101589725       -0.73007541422570       -3.05300197340235
H           -8.41437522080277       -2.54639149321908       -3.36546915075572
H           -7.46529509379671       -1.24327615075889       -4.29368183559518
H           -4.88656998512591       -3.54172898167466        2.48880711975034
H           -5.15094900479264       -4.85648466311028        1.30767624228112
H           -3.50555944783847       -4.21304476476522        1.57952140190010
H           -3.14033245872406       -2.04398089209156        2.30804626093783
H           -2.19289340608721        0.17869703648413        2.28013382324782
H           -2.84336285203229        2.66230856440381       -1.67456870263470
H           -1.41254234816169        3.38295563927608       -0.93200404536003
H           -1.71914738702735        0.42444316845495       -1.60979835101658
H           -0.97295024821065        1.64925351444989       -2.64599325278338
H           -0.59099662402857        1.62982440209113        1.04057712536556
H            0.82522126689897        2.02485380289142       -0.91145967587371
H            2.15674947543292       -0.75256124233781        0.69480656810380
H            2.41259897238498        0.90906419794946        0.15397913080046
H            2.84195828456200        0.04221715313178       -2.17092381987248
H            2.75913525271218       -1.61280760593529       -1.54548519163598
H            4.69864349080329        1.51811921465625       -1.57333489730364
H            6.99843715907381        1.72169116236795       -0.79099903953012
H            8.70984877942622        1.77564605776954        0.82848775865752
H            9.28286774106373        1.12073005842288       -0.73207503372284
H           10.10628595897217        0.67144703456754        0.78357769183566
H            7.13385970280532       -4.26546376249640        1.67010456107702
H            5.51659082496995       -3.53390603257872        1.79920303113719
H            6.10547196600365       -4.13679747666038        0.22212959513036
H            4.48116176763241       -2.44282725007442       -0.01938846246080
H           -0.23050118450507       -1.48153536295391       -1.74545457035629
H           -0.99746201761459       -1.17076232405899       -0.17453157357770
H            0.54359188533129       -2.04640039648200       -0.25538976333353
H           -4.50608784808064        3.01824119119972       -0.03226686005229
H           -3.66861157813849        2.95810048740796        2.88620579869596
H           -4.75826473371712        1.80376928492002        2.10343918723568
H           -5.23484998692806        3.49432049016040        2.26269920668057
H           -2.52100391740309        4.77413018185063        1.45675493367858
H           -2.94992102017397        4.91344757119202       -0.25841072415367
H           -4.15281150430218        5.24832239317598        0.98026032022402
H           -0.55423089200945        3.02225175145962        2.95610027860273
