72
 energy: 70.579418062554 xtb: 6.6.1 (8d0f1dd)
N           -1.45883432209587        3.00537558074749        2.35310308615843
C           -1.49339803924816        2.23467383864855        1.35841439084800
C           -2.63294551943662        2.14293284678964        0.37628021050495
C           -3.21092485744269        0.73919949212663        0.38502788418681
C           -4.10647837534319        0.34307408577236       -0.59370879564080
C           -4.74759534078777       -0.93349552684611       -0.66859896120034
O           -5.52724713925178       -1.25129791409577       -1.61985147543143
C           -7.64363142257212       -1.29479892082395       -3.15582579796064
C           -4.34300642478614       -1.82029611003409        0.44198355410149
O           -4.88182403664581       -3.07903207888575        0.44235713891645
C           -4.59630513078253       -3.98177904436422        1.48320314467744
C           -3.45706713015537       -1.40428015815816        1.41482192911400
C           -2.88989420832812       -0.13818202581162        1.40691505538132
C           -2.06422168407827        2.42971220203325       -1.03842516796805
C           -1.16837627855345        1.32273863113505       -1.65132970555770
C            0.15249676137348        1.16717842906137       -0.96966227145165
N            0.68078245080863       -0.00965066539408       -0.56203494634849
C            2.06634705615574       -0.08631067158046       -0.16120706528836
C            2.99658237884935       -0.57386354259486       -1.29611246558707
C            4.42706704377150       -0.47002768310257       -0.86226138434578
C            5.13791035513063        0.69809811430491       -1.05484350859710
C            6.44785678933774        0.81456903726440       -0.60563871220041
C            7.06235243580557       -0.23738922110759        0.05371541352323
O            8.33960299309713       -0.23792764202473        0.52956897012409
C            9.12468102846547        0.90853017507321        0.32936183743081
C            6.33397740337767       -1.42973929821315        0.27327160906737
O            7.01271601934481       -2.40849636088550        0.93402185842215
C            6.37526346431299       -3.63884147456458        1.15689522852334
C            5.02991180146061       -1.52477031183749       -0.18137651861582
C           -0.03624579463155       -1.26427729893558       -0.68265323989541
C           -3.78590381590227        3.13501280120042        0.70108910341874
C           -4.42598915775691        2.81511339886062        2.05033682928432
C           -3.33420758015614        4.59147858605113        0.67865227524942
H           -4.40040051818029        1.03082708002630       -1.37511065340233
H           -8.16525058878479       -0.47932467229849       -2.70612364201302
H           -7.99180173360611       -2.30590208830129       -3.08929244165965
H           -6.98909575047386       -0.96156660897274       -3.94060367820115
H           -4.87940995643823       -3.58699199497679        2.46935571711842
H           -5.18756455923744       -4.88070813132939        1.27819130133573
H           -3.53441635939001       -4.26457571646556        1.52073298201686
H           -3.18959664708213       -2.05988099622508        2.22815161413459
H           -2.22538260399805        0.15199692189143        2.20327604676952
H           -2.90926663966963        2.59634450848921       -1.71856757279678
H           -1.47760644264133        3.34491890251135       -1.00244628466275
H           -1.70503999033231        0.37201604605315       -1.63422686036532
H           -1.02931226906895        1.60874393919063       -2.70907881896526
H           -0.64270423753801        1.61327646974864        1.04334442202401
H            0.84371585648491        2.00411497339139       -0.99519152063443
H            2.19201281600581       -0.74391179835020        0.70946355628806
H            2.38058366192754        0.91350517017131        0.13963909322377
H            2.82179983670124        0.04975732107368       -2.17361975910503
H            2.74181654909104       -1.60443937493046       -1.54210481949391
H            4.67638506386929        1.52679563553949       -1.56959179375835
H            6.97991797189894        1.73593975478729       -0.78373036392619
H            8.69365521349120        1.78496556339262        0.82469636806928
H            9.26028675270992        1.12660373860327       -0.73573628417192
H           10.09232359661311        0.68567419116916        0.77593960602442
H            7.10932078830071       -4.26261138195872        1.66613333783160
H            5.49418160950584       -3.52620953821170        1.79646142700999
H            6.08305997844112       -4.12241930979879        0.21849225108952
H            4.46165291738427       -2.42781739275034       -0.01977123554932
H           -0.22616847764691       -1.52340409839791       -1.73028892031845
H           -0.99779702880574       -1.19823804008669       -0.16549600044488
H            0.54146784187018       -2.06834241677191       -0.22323281303873
H           -4.55026728740518        3.00711671016496       -0.07282791112270
H           -3.68717560211271        2.94367544165077        2.83674731948844
H           -4.79278989490868        1.79171800325154        2.07098118396084
H           -5.26430803035495        3.48525247046678        2.23111644835241
H           -2.54411711577134        4.73836156823648        1.40986339110392
H           -2.97277752400233        4.88023871550381       -0.30509787669954
H           -4.17412689388697        5.23398692752834        0.93206933242801
H           -0.59525565677588        2.97258811569969        2.89584283802670
