72
 energy: 70.928619690030 xtb: 6.6.1 (8d0f1dd)
N           -1.40042367433031        2.99530716576757        2.37294693240309
C           -1.44339929777632        2.25612418183193        1.36626179651678
C           -2.58995312498205        2.16296144409057        0.41026036467186
C           -3.15794153563297        0.76125567387666        0.43191975774023
C           -4.02710710820732        0.36635692257060       -0.55905539841842
C           -4.65334723931176       -0.91887499095404       -0.62029358917152
O           -5.42559769651717       -1.19379023851329       -1.56703259649387
C           -8.05970560609604       -1.49044079419612       -3.45740323512609
C           -4.27390282914314       -1.81914196200992        0.48361498834655
O           -4.83370185387777       -3.06787825964720        0.46337849553658
C           -4.57606543796853       -3.95716370511010        1.51540084861290
C           -3.41033302818164       -1.39617425521064        1.47021161676486
C           -2.84596836493808       -0.12451702361413        1.45552268002874
C           -2.01981144777942        2.46576620649206       -0.99919807983315
C           -1.15071877668005        1.34992067329351       -1.61721778143102
C            0.17793849004894        1.16081520493642       -0.98439124991294
N            0.68943112760304       -0.00259834518814       -0.58836967934860
C            2.07511964666322       -0.08363688568609       -0.16216682426731
C            2.99908026272712       -0.57833096958212       -1.28877012852958
C            4.43628903132992       -0.47419797881588       -0.85190970927961
C            5.15077329166888        0.69045492882109       -1.05529216762277
C            6.46181532664262        0.80433122536260       -0.61079563100797
C            7.07499664511034       -0.24478962404142        0.05125407273955
O            8.34849404936578       -0.24522018221437        0.52327630235980
C            9.13914172031861        0.90290183839913        0.33093080403721
C            6.34630991457001       -1.43955718939419        0.27118110938365
O            7.02737998573115       -2.41503882251665        0.92663471637201
C            6.39205488266740       -3.64685320578656        1.15787697246305
C            5.04165956427855       -1.53401287731713       -0.17903766854939
C           -0.04099754116769       -1.24509818251479       -0.69707245839180
C           -3.75230118040534        3.15060618402333        0.73569023367003
C           -4.39953246347546        2.82514690465758        2.07959640495263
C           -3.31213538611532        4.60946534268387        0.71539143560457
H           -4.31767334436413        1.03861693403843       -1.36274980258044
H           -8.57175299265572       -0.68658037763107       -2.98498176437850
H           -8.32370387539472       -2.51563736108528       -3.29775651588669
H           -7.37755035745520       -1.18846256868713       -4.21292393980365
H           -4.88569469538926       -3.54765706628288        2.48563873292349
H           -5.15775922289599       -4.86008015761766        1.30272275220166
H           -3.51156696571776       -4.22233328774739        1.57182782315196
H           -3.15284041796826       -2.04556311962910        2.29381744564040
H           -2.20484837648468        0.17546951351833        2.26712758920305
H           -2.85492520176273        2.65073206805911       -1.68419816387312
H           -1.42406467988567        3.37392028465030       -0.94504828807329
H           -1.71170798003471        0.41524766991358       -1.61397900172513
H           -0.98545702133606        1.64481577105118       -2.66107393486941
H           -0.58657667112678        1.61541434446198        1.06683852332537
H            0.83820300956516        2.01736211085849       -0.92345081296796
H            2.16430377931727       -0.75238444012470        0.69796958989235
H            2.40645792789640        0.90855546722514        0.15121571261744
H            2.83824355764360        0.04389592312295       -2.17174186179654
H            2.75751870628924       -1.61080822965594       -1.54354826417770
H            4.69428693506805        1.52035567277493       -1.57302636262647
H            6.99470200260732        1.72471178957717       -0.78962700460292
H            8.70656407015413        1.77737382128998        0.82780952231577
H            9.27839617207567        1.12188192782439       -0.73278832711097
H           10.10349629525758        0.67420404659450        0.78209091419943
H            7.12875050400966       -4.26482786645704        1.66941252159508
H            5.51202068556834       -3.53194743099593        1.79863026695489
H            6.10086685310743       -4.13370124104550        0.22135601855979
H            4.47726876083478       -2.43997555815407       -0.01950724327806
H           -0.23021115596857       -1.48980837690709       -1.74406891717989
H           -0.99809908197032       -1.17544172368651       -0.17416112067241
H            0.54343786626653       -2.04880527865162       -0.24818918577724
H           -4.51403693495447        3.01583332826586       -0.03987949792860
H           -3.67337308805686        2.95538073556899        2.87678472359961
H           -4.76534300609938        1.80149074285452        2.09699600096795
H           -5.24131420314952        3.49301593284944        2.25655100170632
H           -2.52595746298175        4.76717380118188        1.44717653819627
H           -2.95433790012991        4.90608076326125       -0.26769988769962
H           -4.15740239504243        5.24549580194055        0.97028577462313
H           -0.56749126589251        3.01456900359435        2.95281859950860
