72
 energy: 71.099385613744 xtb: 6.6.1 (8d0f1dd)
N           -1.44388962863989        3.00642241677881        2.35816202835760
C           -1.48802455597478        2.23641844789888        1.36654576270466
C           -2.62330613145276        2.14796399217815        0.38492817395754
C           -3.19801574053135        0.74512855704277        0.39611121941669
C           -4.08430521148698        0.34944230642900       -0.58663310021359
C           -4.72022450336426       -0.93058470920979       -0.65418369546730
O           -5.51131220888634       -1.23457539851578       -1.58711066119639
C           -7.75266503214388       -1.35142719049795       -3.22915459804326
C           -4.32405839340958       -1.82147022100120        0.45445135299432
O           -4.87198500938634       -3.07701285328140        0.45070767984609
C           -4.59161866313976       -3.97631087233118        1.49221438051114
C           -3.44556976454698       -1.40181408425587        1.42997884671645
C           -2.88064133752855       -0.13351087184687        1.41947542566033
C           -2.05380510281532        2.43836542497293       -1.02809292098492
C           -1.16245741936492        1.33177813527422       -1.64428100434228
C            0.15948089910712        1.16332465994478       -0.97166039402919
N            0.68340978939964       -0.00751414160108       -0.56594764007445
C            2.07018296860243       -0.08714069223196       -0.16132027838880
C            2.99759105720988       -0.57495467252580       -1.29563938238198
C            4.43095264994679       -0.47234446809994       -0.86355663858803
C            5.14188717115363        0.69561723669934       -1.05627453102693
C            6.45181142700532        0.81172136720191       -0.60739635673826
C            7.06659162806806       -0.23954312296690        0.05344872151740
O            8.34392429105640       -0.24011054524697        0.52894135171643
C            9.12898641516309        0.90731334640888        0.32976034519943
C            6.33776508731308       -1.43261927782703        0.27329942142960
O            7.01712119730412       -2.41087294357374        0.93390243624679
C            6.37946218658619       -3.64125405530990        1.15747781142651
C            5.03404503004137       -1.52739453965364       -0.18245937954979
C           -0.03675431740783       -1.25926034152973       -0.68527129561897
C           -3.77858783123923        3.13901507092811        0.70965453763483
C           -4.42065127912918        2.81853874498324        2.05763737891922
C           -3.32963800536205        4.59530130684828        0.68823202541275
H           -4.37834532971503        1.03324836900867       -1.37350461310535
H           -8.26704863268183       -0.53482477139280       -2.77638337311154
H           -8.06697477797574       -2.37236236489773       -3.12394369103105
H           -7.09019053546849       -1.02281956861045       -4.00543937705622
H           -4.88004296207701       -3.57848343080678        2.47512840637265
H           -5.17972220741089       -4.87688291425954        1.28536124679995
H           -3.52888503028026       -4.25514202544039        1.53460486496014
H           -3.18177359804253       -2.05373554538103        2.24683212799323
H           -2.22506838822008        0.15940913595602        2.22094009969427
H           -2.89510990289820        2.61335740748865       -1.71153596875207
H           -1.46280932017747        3.34861085253452       -0.98533407344550
H           -1.70496017226857        0.38439670359893       -1.62868245307699
H           -1.01795189157717        1.61724292703584       -2.69792246599699
H           -0.63731883243089        1.60079437381425        1.05980193571144
H            0.84601450185454        2.00464348573414       -0.97414372386042
H            2.18634669911299       -0.74635516916742        0.70772967423639
H            2.38778074364825        0.91167527564095        0.14204717915388
H            2.82566553307879        0.04852602789302       -2.17392370860278
H            2.74617434516416       -1.60570811290294       -1.54180524129399
H            4.68124082975810        1.52549866648362       -1.57051351123192
H            6.98351029868914        1.73334062838294       -0.78576644594514
H            8.69701994983122        1.78304555055331        0.82536145970477
H            9.26501921141738        1.12572936231959       -0.73513280241214
H           10.09605677496048        0.68368603458599        0.77732369368749
H            7.11386319967840       -4.26391491577084        1.66728261911310
H            5.49853921175146       -3.52767266894818        1.79708370549233
H            6.08746329861030       -4.12510776537742        0.21930456704948
H            4.46580045067771       -2.43065630942940       -0.01971397581091
H           -0.22615114071168       -1.51437960721954       -1.73262263237501
H           -0.99774441885556       -1.19251087405838       -0.16743577962152
H            0.54174463850411       -2.06425044341375       -0.22927670764877
H           -4.54191356679516        3.00958705113286       -0.06482555854652
H           -3.68397898116809        2.94642068400468        2.84621203645294
H           -4.78580731571967        1.79446908843400        2.07648669981813
H           -5.26040702594892        3.48847758616324        2.23808581242680
H           -2.53983793341450        4.74510534873553        1.41894537702648
H           -2.96837825635179        4.88525983549700       -0.29534872844311
H           -4.17118482419386        5.23692208864622        0.94141506397124
H           -0.59057202487658        2.98002971538257        2.91363780505748
