72
 energy: 68.864315925693 xtb: 6.6.1 (8d0f1dd)
N           -1.36750244825400        3.00203945352716        2.42402237291520
C           -1.39095753320674        2.28915945281712        1.39520775305753
C           -2.54824540138107        2.18411695236545        0.44951877796394
C           -3.10671978458393        0.76301022868670        0.48298294312992
C           -3.96725056484548        0.33704712272436       -0.50506149557304
C           -4.54637673665886       -0.97075813730960       -0.53651971272086
O           -5.29824113208021       -1.34467939825792       -1.45458448381527
C           -8.61500738552406       -1.46672215975724       -4.00561860491863
C           -4.18066574505397       -1.83795476949812        0.58017177862197
O           -4.75871184935546       -3.06939630194184        0.52931354409637
C           -4.54227372417135       -3.97654399556160        1.57290737780721
C           -3.32674312649474       -1.39589445337735        1.56301638206612
C           -2.78117690044665       -0.11216563110868        1.51831457421999
C           -1.97669833050926        2.50097807901491       -0.95814142085181
C           -1.13704355828355        1.37106053275493       -1.58283126076972
C            0.17316451134423        1.17594379728926       -0.92955047056238
N            0.70404294547029        0.00025538706111       -0.59657886384348
C            2.07553746671768       -0.08136811193333       -0.15935219836660
C            3.00662794009420       -0.57891065697182       -1.28215504999968
C            4.43973165705669       -0.47773134838860       -0.84097953734249
C            5.15682079343052        0.68436133344851       -1.04926325464481
C            6.46943129705979        0.79812163758461       -0.61149992540835
C            7.08202540793410       -0.25222115303811        0.04766075709644
O            8.35551426247653       -0.25536690232309        0.51984387119890
C            9.14896916079003        0.89028885057836        0.33525962938810
C            6.35550285689861       -1.44716541679480        0.26725799979752
O            7.04041772844495       -2.42430790139276        0.91675956301783
C            6.40889213174858       -3.65690387802177        1.15412397330000
C            5.04866293550219       -1.54057942713869       -0.17495453652053
C           -0.03680857756454       -1.23159188050421       -0.71191024504681
C           -3.70947703502171        3.16481962732506        0.77629395627658
C           -4.36091148003314        2.83309849043163        2.11774188900168
C           -3.28121532330060        4.63108526670417        0.76370549734512
H           -4.26242449684729        0.98894106375453       -1.31391382873384
H           -9.14906329944227       -0.69122370831115       -3.50222958304324
H           -8.70436331837232       -2.47744202792479       -3.67284431510940
H           -7.91453849916013       -1.21967428415203       -4.77240101496449
H           -4.87584614751062       -3.57724214148879        2.53761665001743
H           -5.13551053990864       -4.85596671245367        1.32387797147796
H           -3.48636515580405       -4.26470655018648        1.65022819729089
H           -3.06629018011382       -2.03310283311245        2.39738411650244
H           -2.13742172458526        0.20984395980641        2.32379824946114
H           -2.80930435961903        2.70279124014377       -1.63102959437225
H           -1.36912484606802        3.40606577342661       -0.89781217586181
H           -1.72522011909426        0.45489005544380       -1.59835563005662
H           -0.94432764919201        1.66340112401372       -2.62375830068078
H           -0.52926229051684        1.68358876383641        1.04907859957126
H            0.81952822169652        2.03635333287250       -0.83450694205521
H            2.14293813595251       -0.75689349334392        0.69805802655758
H            2.41182912065396        0.90774592576230        0.16019699283617
H            2.84674649764502        0.04190597041912       -2.16574574518348
H            2.75718269585790       -1.60992147721587       -1.53585823140995
H            4.70169271615234        1.51523663376450       -1.56766200610420
H            7.00470672558197        1.71554638955466       -0.79664922079317
H            8.71879938194012        1.76547806005663        0.83342856870756
H            9.29806005105213        1.11268952524040       -0.72650073748803
H           10.10910814358616        0.65366669562385        0.79097925223001
H            7.15056673156545       -4.26814719263854        1.66585226290783
H            5.52938547007231       -3.54499187115076        1.79717967152837
H            6.11794062391834       -4.14946615622097        0.22033227698204
H            4.48667388886697       -2.44837508819339       -0.01765135313962
H           -0.24908481495604       -1.47065857162011       -1.75620058385175
H           -0.98505361436387       -1.15798605878786       -0.17047891806823
H            0.54856608186062       -2.04094317485745       -0.28268647728441
H           -4.46338480483369        3.01891240344053       -0.00558537695014
H           -3.64494676772352        2.96488931899077        2.92248753159100
H           -4.72332563232969        1.80861209733564        2.12881757486104
H           -5.20540506876055        3.49683157713369        2.28824270588333
H           -2.50042992027869        4.79847838603398        1.49928255711371
H           -2.92409348611751        4.94035401236408       -0.21548309131994
H           -4.13315122476128        5.25571306696368        1.02129277226534
H           -0.50720179137581        2.99897211359140        2.96660389689449
