72
 energy: 69.215780819247 xtb: 6.6.1 (8d0f1dd)
N           -1.47380701989024        2.99857374499273        2.34767562847529
C           -1.49477171816670        2.23751111827591        1.34393457343238
C           -2.64313742497205        2.13846469968692        0.36604735539169
C           -3.22274996387180        0.73152592931900        0.37100682572665
C           -4.12825825134543        0.33354002575805       -0.60451155873733
C           -4.77544248335021       -0.93838636699067       -0.68571034545087
O           -5.54630690759448       -1.27556886467958       -1.65837046371879
C           -7.52871784037450       -1.23546635630550       -3.07754947320239
C           -4.36270329105306       -1.82054341023787        0.42741113251759
O           -4.89276090810599       -3.08337875709871        0.43490164027279
C           -4.60004900928472       -3.98820702323552        1.47514171072130
C           -3.46732934425450       -1.40772419271905        1.39684052166627
C           -2.89681408457641       -0.14349430323540        1.39135383813683
C           -2.07418094086548        2.42389353835606       -1.05019717689169
C           -1.17535687056225        1.31384723869980       -1.65309763943502
C            0.14251581791003        1.16960609713344       -0.96402072273793
N            0.67749866312385       -0.01315469696908       -0.55779601841034
C            2.06127839793574       -0.08409584059726       -0.16106999550853
C            2.99194164935169       -0.57391007402511       -1.29442660309441
C            4.42189006360723       -0.46762257095018       -0.85926318180423
C            5.13326737588160        0.70027773198422       -1.05375877854327
C            6.44335927467061        0.81686780970545       -0.60514468872457
C            7.05770536108858       -0.23530787478604        0.05358617410643
O            8.33456497826098       -0.23618357045497        0.52980736308059
C            9.12022864250307        0.90921255514574        0.32898247925707
C            6.33031543494470       -1.42690750718428        0.27285472372485
O            7.00843482171724       -2.40600901547468        0.93407132860295
C            6.37109179760828       -3.63631817416770        1.15648177653019
C            5.02570986178183       -1.52224807493501       -0.18009450195493
C           -0.03639883374509       -1.26958415724275       -0.67923346803835
C           -3.79322767348900        3.13088353358686        0.69195296061911
C           -4.43153382482914        2.81161523345347        2.04255629890135
C           -3.33904916919304        4.58759990277326        0.66880500554486
H           -4.42203965447041        1.02777118880556       -1.37844638830893
H           -8.06212012716653       -0.42082246360749       -2.63520666108189
H           -7.91634279054022       -2.23356166092669       -3.05401963538592
H           -6.88735681216871       -0.90078893454840       -3.87604840946786
H           -4.87844284339075       -3.59469714078071        2.46298795459360
H           -5.19407608046019       -4.88579689731786        1.27244561475435
H           -3.53869888255190       -4.27283974203499        1.50649702237851
H           -3.19286979913417       -2.06560929070677        2.20689856730934
H           -2.22415786483292        0.14431838076827        2.18386352188210
H           -2.92056099921120        2.58130027627913       -1.72936491633902
H           -1.49104153273608        3.34209404397952       -1.01930270617057
H           -1.70725579182218        0.36015837669542       -1.63412814279769
H           -1.04136961876553        1.59510860626770       -2.71763510233829
H           -0.64662164646266        1.62471924917135        1.01317322742642
H            0.83522028376795        2.00156569030811       -1.00563579073941
H            2.18995774111698       -0.73788282027756        0.71160344737780
H            2.37271763409639        0.91674438013106        0.13658750453021
H            2.81752487171878        0.04993987502028       -2.17227826260576
H            2.73849843663924       -1.60514659371631       -1.54425807914305
H            4.67139038144865        1.52821789275695       -1.56878967517537
H            6.97631120774604        1.73803790413699       -0.78113115320688
H            8.69032066663646        1.78654205514454        0.82406384586899
H            9.25549175402710        1.12717378842606       -0.73624254254155
H           10.08841101246086        0.68702161912639        0.77459875330622
H            7.10473907606190       -4.26126593993533        1.66512873961307
H            5.48991327295826       -3.52461265371381        1.79625122481474
H            6.07857908869422       -4.11956630389317        0.21787288090042
H            4.45771327934281       -2.42522436016261       -0.01984683242669
H           -0.22602443225966       -1.53243889888840       -1.72712342455144
H           -0.99836387227054       -1.20367372423980       -0.16291096557707
H            0.54027069017483       -2.07277380973155       -0.21639355897026
H           -4.55849752331660        3.00403527490074       -0.08125427083790
H           -3.69074890934117        2.94212532264626        2.82669893485878
H           -4.79981305347133        1.78884969067070        2.06552808154588
H           -5.26879308209458        3.48214740168970        2.22319289441999
H           -2.54926956792088        4.73085844256208        1.40132698208538
H           -2.97740134125905        4.87562455298688       -0.31500635247223
H           -4.17771106429353        5.23081986429484        0.92238428172635
H           -0.60119852711425        2.96254608547806        2.87927911938085
