72
 energy: 8.154661526093 xtb: 6.6.1 (8d0f1dd)
N           -1.48938793486406        2.87361769608009        2.28338303045573
C           -1.53264588244211        2.17516030063557        1.23508210249789
C           -2.70867092721517        2.09231245891965        0.29381068737742
C           -3.29013186152826        0.69033835166651        0.33769368111222
C           -4.25023758483967        0.28512175623687       -0.60599982325040
C           -4.87282927476198       -0.95959671211873       -0.63334525104781
O           -5.83688793192529       -1.44488653820635       -1.55941660577767
C           -6.75222954512215       -0.87068414573878       -2.53888922599533
C           -4.41658725463711       -1.87119178954444        0.39301543680490
O           -4.95230867367782       -3.13346450625449        0.41143097269356
C           -4.63523060689572       -4.04774257290869        1.43351377831232
C           -3.46760873407159       -1.47304721676323        1.33581140339296
C           -2.90794713356988       -0.20434791079327        1.31660314663872
C           -2.14734796019348        2.35202425423759       -1.12990433972882
C           -1.22660432715702        1.23964008454520       -1.66959739436213
C            0.05337718180789        1.16931540475859       -0.90501929399826
N            0.65654985810737       -0.04200525352040       -0.55071510449489
C            2.02809553173997       -0.06022537052129       -0.15897707896359
C            2.96077093476844       -0.55582928075588       -1.28516607887484
C            4.38585775751717       -0.44816790649820       -0.85062248874101
C            5.10024035326196        0.71845146318717       -1.04817499238545
C            6.40999955300825        0.83124676264045       -0.60321425421403
C            7.02192637845842       -0.22051018551561        0.05586469545080
O            8.30061573234505       -0.22203985024046        0.52989563566621
C            9.09024889647314        0.91983585655176        0.32373415031477
C            6.29519417816253       -1.41112358720519        0.27670760693861
O            6.97616737488492       -2.39305842816263        0.93302522100486
C            6.33889622152782       -3.62383241440959        1.15394808644417
C            4.99086016193471       -1.50474150047372       -0.17121076971610
C           -0.04186068223836       -1.29260463045224       -0.64831686648270
C           -3.83992381696247        3.10075698169220        0.62846903990967
C           -4.46985023419101        2.79152727871093        1.98492410248470
C           -3.37194151159898        4.55294796338510        0.60009325965753
H           -4.56504043197169        0.99103227104902       -1.35764662234139
H           -7.33757528865581       -0.01919265665519       -2.15464854936524
H           -7.44682393247070       -1.64889625122845       -2.86393962875184
H           -6.18014474186635       -0.50685047994186       -3.40669404978893
H           -4.88113868440193       -3.66207072857097        2.42971724955967
H           -5.24911487806866       -4.92974291850497        1.23482464375110
H           -3.57936298993125       -4.34253738012256        1.41589339078725
H           -3.13271209939863       -2.14414265451950        2.12070418516226
H           -2.18283729668317        0.07821525860631        2.06956456749356
H           -2.98490234000687        2.47038851715400       -1.82251449307378
H           -1.58454074297672        3.28439053086665       -1.12412754669159
H           -1.76140071919186        0.28853722333180       -1.62847051115136
H           -1.04262356645048        1.46750730539821       -2.73548132161597
H           -0.66873361928828        1.63954211826755        0.79253650502229
H            0.72337461557054        2.00828346243096       -0.98572283571865
H            2.15098167588393       -0.69838380230122        0.72440477507828
H            2.32492237240856        0.95153961775767        0.12028611839789
H            2.78576792635361        0.06028447414981       -2.16729281723757
H            2.70530909917940       -1.58863618406453       -1.52576054911221
H            4.64273320883141        1.54882423259430       -1.56407708670681
H            6.94597619592619        1.74939189238638       -0.78473590324639
H            8.66679040214454        1.79976197507266        0.81978865561878
H            9.22334211327051        1.13456808675522       -0.74235760218462
H           10.05767673948438        0.68938171390459        0.76681456918861
H            7.07533969559348       -4.24806182138649        1.65863184678906
H            5.45906606590281       -3.51477594056308        1.79674026936883
H            6.04459215237349       -4.10396725015938        0.21428263983195
H            4.42484218655354       -2.40943538453458       -0.01140859733920
H           -0.22609953940658       -1.59167611926446       -1.68926980485347
H           -1.00556839174242       -1.22753615476769       -0.13291540979335
H            0.55037329534073       -2.06816070151611       -0.16068204632480
H           -4.61258848961658        2.98152012977041       -0.13991954741086
H           -3.72505920967926        2.91926236621750        2.76485595010335
H           -4.84265607959184        1.77005840250447        2.01481562112885
H           -5.30223412916362        3.46824038714690        2.16814716823140
H           -2.57840519777138        4.69864215086329        1.32766069334247
H           -3.01249841554690        4.83819100947056       -0.38560917642882
H           -4.20528708843357        5.20443283609122        0.85494070966056
H           -0.59128914854651        2.84413762530463        2.76553901033235
