72
 energy: 60.923951508065 xtb: 6.6.1 (8d0f1dd)
N           -1.49755025213823        2.96413872621365        2.33308869050424
C           -1.50184271886742        2.23180793053895        1.30721935738085
C           -2.66355814288084        2.12794274339031        0.34357136083896
C           -3.24914566033039        0.72456804069247        0.35490269910481
C           -4.17237886099884        0.31659146298182       -0.62172108877165
C           -4.81862510589652       -0.94446837186745       -0.70110945213664
O           -5.62769295379108       -1.35447819727986       -1.70468433507019
C           -7.26071481004221       -1.12904276284242       -2.88573779495520
C           -4.39668466203432       -1.82603739930099        0.40168007765918
O           -4.91399329707834       -3.09661552757030        0.42228292752598
C           -4.60835400648061       -4.00355456533114        1.46104977305403
C           -3.48136924803714       -1.41432982056377        1.36569508484829
C           -2.90918832573265       -0.15298044351774        1.36364580020359
C           -2.09675328713359        2.40702761146950       -1.07467652928389
C           -1.19237230885099        1.29204207150753       -1.65037874946759
C            0.11778047930711        1.17737694962830       -0.94840493711989
N            0.67270727052940       -0.02089785825835       -0.54782594560246
C            2.05133985597230       -0.07604866322326       -0.15900025132642
C            2.98243766842465       -0.56909708487356       -1.29066391031042
C            4.41101601112931       -0.46167108626781       -0.85447389090176
C            5.12366088849726        0.70550434319833       -1.05214718764767
C            6.43364639620301        0.82101398887973       -0.60451393275356
C            7.04734002460705       -0.23156875024043        0.05346007272791
O            8.32437942702284       -0.23303099000921        0.53074514358749
C            9.11078152803117        0.91096568269804        0.32819864894886
C            6.32083694935046       -1.42171527591675        0.27314356850859
O            6.99968420679558       -2.40174985644866        0.93359760013428
C            6.36219012039809       -3.63204908274876        1.15544979021678
C            5.01588368859277       -1.51683948684409       -0.17724643590611
C           -0.03738569398578       -1.27303795190373       -0.67216422420119
C           -3.80633163001917        3.12263196321419        0.67275993101978
C           -4.44272192257230        2.80552998310642        2.02560927179201
C           -3.34877558689517        4.57825149381503        0.64829826656025
H           -4.46526255446638        1.02113964043242       -1.38312517383455
H           -7.84413393773610       -0.30817378587381       -2.49478118646989
H           -7.76210701595734       -2.07695624349085       -2.98052755352241
H           -6.68519975593400       -0.78904457773782       -3.74065169604191
H           -4.87918595609758       -3.61234669425772        2.45126021721371
H           -5.20834203159208       -4.89724934982023        1.26058134521914
H           -3.54854271064209       -4.29293814164681        1.47999840061027
H           -3.18237460790744       -2.08027557477340        2.16631629599617
H           -2.21591873814010        0.13009037818408        2.14439547217645
H           -2.94123670555407        2.54899655445064       -1.75675580782084
H           -1.51850695404488        3.32875124585755       -1.05256914215109
H           -1.71880338529932        0.33576331304983       -1.63221575926872
H           -1.05700447832583        1.56179642124287       -2.71632569422596
H           -0.64989669692902        1.63536405343979        0.95193280686567
H            0.80783436366791        2.00175139511927       -0.99978802486599
H            2.17891432590761       -0.72581674201963        0.71676930607483
H            2.35933602856459        0.92702552783440        0.13615683841879
H            2.80781709564024        0.05180228179284       -2.16986013040239
H            2.72764970199011       -1.60077962511256       -1.54024018706250
H            4.66238592271395        1.53356401094083       -1.56743200197779
H            6.96763665504201        1.74172808464741       -0.77999985570274
H            8.68318322725136        1.78974134237493        0.82318202512680
H            9.24562151226014        1.12854070083463       -0.73730575601607
H           10.07949486286136        0.68824935161641        0.77243840199933
H            7.09587301392199       -4.25819756295232        1.66282290299870
H            5.48127361833409       -3.52181140544017        1.79625512614541
H            6.06920903304740       -4.11428796873261        0.21640562319380
H            4.44810474444598       -2.42007763218627       -0.01893154501252
H           -0.22667589722054       -1.54941419736619       -1.71863299083991
H           -0.99845177189606       -1.21192922731854       -0.15561327156400
H            0.53997758549338       -2.07238135228572       -0.20163827681806
H           -4.57262872236299        2.99416294040669       -0.09905955016212
H           -3.69883163826617        2.93794120628009        2.80621783037843
H           -4.81430124402721        1.78381394768761        2.05231203527723
H           -5.27778391790320        3.47844226269939        2.20678461686118
H           -2.55917526401815        4.71726395700401        1.38188681447071
H           -2.98756219073999        4.86601320448509       -0.33577379402325
H           -4.18547564194036        5.22358882106305        0.90305937716912
H           -0.60992056745813        2.93344746818012        2.84565898398854
