72
 energy: -1.304621396176 xtb: 6.6.1 (8d0f1dd)
N           -1.49129084597723        2.83190702183220        2.26792155149917
C           -1.53985112579766        2.16375884160378        1.20223679406457
C           -2.72431854168359        2.07926718895282        0.27433666043398
C           -3.30562014639334        0.67535145424369        0.33281001759531
C           -4.27463497159067        0.27221719112348       -0.59860753806664
C           -4.85931290105379       -0.98766799686261       -0.59912091882559
O           -5.82926268169545       -1.47804297750557       -1.47780434273338
C           -6.60816613294375       -0.76841213552151       -2.43934819660214
C           -4.40658560287276       -1.89792979881592        0.41073586577157
O           -4.96727926102911       -3.14350258324545        0.40768483576173
C           -4.64627034424270       -4.06637772325773        1.42147800304314
C           -3.44855546160681       -1.50049101398431        1.33567020870494
C           -2.90040177698303       -0.22578504474646        1.29928213129913
C           -2.16699230396943        2.33032869529752       -1.15253533836503
C           -1.24264629525346        1.21318363178995       -1.67162780624341
C            0.03096933804489        1.15168173815178       -0.90057758797601
N            0.64615305448284       -0.04396399799342       -0.55603534288978
C            2.01639642609836       -0.04866136075054       -0.15888327441644
C            2.94972869470660       -0.54948473904939       -1.28237516006579
C            4.37455837187868       -0.44179882634367       -0.84532823226468
C            5.09013663772384        0.72377009296828       -1.04555958975918
C            6.40030680894433        0.83581772577964       -0.60267668215198
C            7.01156383580285       -0.21569897366787        0.05681546620241
O            8.29014464063366       -0.21770212808736        0.52937490186405
C            9.08158608857465        0.92302734115268        0.32229868190890
C            6.28464798216247       -1.40669749195541        0.27833931398304
O            6.96648848024849       -2.38884918410221        0.93255749211327
C            6.32992060456662       -3.62014454672559        1.15371665604945
C            4.98012675061628       -1.49985682239291       -0.16775648163318
C           -0.04519839212757       -1.29844646889821       -0.63717856872777
C           -3.85163197490203        3.09168668655779        0.61063762687241
C           -4.47971523725493        2.78513195022351        1.96853605517625
C           -3.38020943456340        4.54300201396608        0.57980137368809
H           -4.60524529701125        0.97413279074947       -1.34481439906990
H           -7.14150534685676        0.09414258992994       -2.01394682329876
H           -7.34502031117345       -1.46507217044351       -2.84090053832121
H           -5.97486704563898       -0.40632280899929       -3.26070120831010
H           -4.88117244072390       -3.68155762097811        2.42036010970079
H           -5.26491709492670       -4.94372419021445        1.22454415170983
H           -3.59129705958438       -4.36204339251700        1.39036416383780
H           -3.10633711039835       -2.17343148395665        2.11217187429705
H           -2.16711828706333        0.05706479121781        2.04294348349516
H           -3.00208216314002        2.43563673466467       -1.84821407340353
H           -1.61135491836466        3.26805951287034       -1.15607253362274
H           -1.77988365398740        0.26494447582142       -1.62784727982721
H           -1.03096073919466        1.42662022087621       -2.73245904783637
H           -0.67512093856300        1.64492850001702        0.73083728951007
H            0.68811846922303        2.00208902811418       -0.97061307149197
H            2.13743231549460       -0.68371009188290        0.72652381476569
H            2.31301941032357        0.96549810414638        0.11418083690809
H            2.77731587422751        0.06336540715412       -2.16780526204533
H            2.69478043750690       -1.58313131626259       -1.52003972498442
H            4.63402305256339        1.55447261307462       -1.56265595758965
H            6.93705639060417        1.75293811118551       -0.78629541271712
H            8.66051265919556        1.80386448547539        0.81877089355438
H            9.21445961211280        1.13669888379861       -0.74391256995594
H           10.04866149625495        0.68987441812848        0.76479781412009
H            7.06765829151980       -4.24350079662359        1.65723417489059
H            5.45073218046745       -3.51209870912680        1.79782570586429
H            6.03522121418106       -4.09982368215704        0.21396742358765
H            4.41492454767203       -2.40532953276134       -0.00868888077510
H           -0.22484793139698       -1.60450261433769       -1.67568836002837
H           -1.00959780122184       -1.23373764717383       -0.12354202431127
H            0.55417307021033       -2.06351354051901       -0.14492429632752
H           -4.62590287195557        2.97303156484225       -0.15646762613790
H           -3.73649118854501        2.91182476074225        2.74969974435159
H           -4.85493953294636        1.76477006044282        2.00023801389649
H           -5.31003925495448        3.46404960700436        2.15132047364037
H           -2.58609572464846        4.69205418919620        1.30575459247697
H           -3.02260566597819        4.82828813152151       -0.40654923797989
H           -4.21215595304588        5.19558546832917        0.83568252229125
H           -0.60194193743727        2.81587893513075        2.77117322358652
