72
 energy: 69.029483981357 xtb: 6.6.1 (8d0f1dd)
N           -1.36336916860387        3.00323513027798        2.43289751846360
C           -1.38319770429426        2.30144203625317        1.39616787918665
C           -2.54097794339703        2.19267164760892        0.45423649550204
C           -3.09348217874326        0.76888956831751        0.49179205954451
C           -3.95487931293196        0.34772116258275       -0.49611573187165
C           -4.54482686484130       -0.95269378708310       -0.54038410678301
O           -5.30561654688521       -1.29837843916215       -1.46316966497649
C           -8.61316424478411       -1.53487398440523       -3.97913644816870
C           -4.18672128994151       -1.83076185546913        0.56910915748785
O           -4.76360493192259       -3.06524609761097        0.52095152597041
C           -4.54359011006518       -3.97192445422808        1.56441715188796
C           -3.32860586400186       -1.39400783819231        1.55094301142175
C           -2.77199533007337       -0.11402352733468        1.52174469366356
C           -1.97290582169905        2.50904669059264       -0.95512034518355
C           -1.13467425240748        1.37765350000845       -1.58131680715280
C            0.16976561892238        1.18047341744415       -0.91607938880386
N            0.70587104454551        0.00182340754761       -0.60025703778728
C            2.07484104928719       -0.08253892943268       -0.15855920318491
C            3.00720122412546       -0.57977353838779       -1.28102174600648
C            4.44000934143007       -0.47862214694412       -0.84016116053494
C            5.15706149853066        0.68351023444060       -1.04798967353399
C            6.47017500020188        0.79657662328897       -0.61130484432207
C            7.08273188490354       -0.25387288140021        0.04790178166635
O            8.35684120251319       -0.25723272747753        0.52040518782911
C            9.14869324292981        0.88869901146256        0.33594866994798
C            6.35642009880139       -1.44835416653285        0.26713101074800
O            7.04125928268852       -2.42632091994103        0.91615366850699
C            6.40910384603856       -3.65833282834984        1.15344019362530
C            5.04949583277479       -1.54152112330821       -0.17478214701912
C           -0.03803865623489       -1.22872266385173       -0.71239153222149
C           -3.70685408244673        3.16825593294150        0.77786316764977
C           -4.36040382722089        2.83595733170550        2.11783963000976
C           -3.28102320469837        4.63451083008689        0.76434067372051
H           -4.24982100040762        1.00120667287303       -1.30218569880985
H           -9.16290895657673       -0.76403853718327       -3.49036644419584
H           -8.77188976978110       -2.54824600817756       -3.71248667758265
H           -7.92749431152660       -1.29258606858496       -4.75603908757130
H           -4.87659952587924       -3.57411246714035        2.52973510088660
H           -5.13529816153099       -4.85333397014318        1.31790389353506
H           -3.48749625508718       -4.25832732099388        1.63950272927102
H           -3.07356336992811       -2.03718922410998        2.38166463088524
H           -2.12943257010256        0.19751384203856        2.33311177679894
H           -2.80266793069504        2.71404344835613       -1.63013419512459
H           -1.36323352023996        3.41316764358467       -0.89281485064895
H           -1.72755849721956        0.46339240834813       -1.59474268292164
H           -0.94065998373025        1.66848449558554       -2.62339168659139
H           -0.52273803818066        1.69734335888596        1.03787572672246
H            0.81776215249896        2.04052039570407       -0.82786152857324
H            2.14258599737610       -0.75936425954520        0.69802037771951
H            2.41331209908583        0.90548556290495        0.16184944418153
H            2.84669810350403        0.04182281037439       -2.16399823700623
H            2.75859041799925       -1.61067782536003       -1.53572991849131
H            4.70121908561632        1.51419652381070       -1.56632432565395
H            7.00579017474832        1.71382646886965       -0.79561568107467
H            8.71869472128454        1.76395538300068        0.83437269464138
H            9.29890072323326        1.11213475454415       -0.72564917353533
H           10.10910870861860        0.65274084159091        0.79182131689945
H            7.15009449053386       -4.27030827254760        1.66535763972700
H            5.52932923700966       -3.54659209303159        1.79629643744186
H            6.11776532847374       -4.15139257959068        0.21999350303021
H            4.48762528336756       -2.44931971472302       -0.01779831239955
H           -0.25256041952875       -1.46655029085589       -1.75650045605235
H           -0.98481901534350       -1.15369600558326       -0.16879844007908
H            0.54520312531133       -2.03972514166507       -0.28379195119103
H           -4.45993116093025        3.02209056569220       -0.00389142632098
H           -3.64301261111161        2.96788175669445        2.92176401578526
H           -4.72039660892244        1.81049437809191        2.12861517924850
H           -5.20665028754919        3.49859243940854        2.28863449246586
H           -2.49972094788692        4.80037668613759        1.49997374707901
H           -2.92416897352178        4.94375871571275       -0.21549074314687
H           -4.13379420084161        5.25918500483494        1.02136215817264
H           -0.49658335962422        2.98749082997936        2.96461773373794
