25
 energy: -42.141164029073 gnorm: 0.002671016206 xtb: 6.6.1 (8d0f1dd)
C            3.05767210218094        1.09159941916147       -0.15458262442385
N            2.20125493574374        0.07708440868526       -0.11117373667296
C            2.47489577613427       -1.25015600822434       -0.11241170599857
N            1.31259000296067       -1.96466443082438       -0.07121843681100
C            0.27641107883353       -1.08676443653784       -0.04249006599287
C            0.81368043449176        0.19456635813995       -0.06590695247152
C           -0.01581672540288        1.37021613109657       -0.05506012981066
O            0.37025926956665        2.51891989896865       -0.07389367231501
N           -1.37699242026302        1.03605754751106       -0.01852427392305
C           -2.33083111061140        2.13228438090249       -0.02140611495932
C           -1.93435172927306       -0.22922724978681        0.00228634080023
O           -3.12400282390676       -0.40336094683110        0.02430894541972
N           -1.04907859669435       -1.32494915710360       -0.00127809429788
C           -1.59381699653100       -2.66678649105694        0.01952063597952
H            5.53123507923410        1.76072763099503        1.24342532934741
H            4.11844594961636        0.90393853767349       -0.16876005863897
H            2.66575921262060        2.09398967029120       -0.16069281824201
H            3.45290107074275       -1.68108559910654       -0.15068459031332
H           -1.77182226858522        3.06665233074221       -0.00003597788938
H           -2.95165231597830        2.08601514566691       -0.91712113095309
H           -2.98393504380855        2.06017566626408        0.84946302140235
H           -1.27304115296934       -3.19526146983248        0.91809300937775
H           -1.28686547849336       -3.21935842466105       -0.86929667488796
H           -2.68007012800369       -2.58033809671915        0.02682763981516
H            1.25760339249586       -2.97203627381412       -0.05821624564060
