72
 energy: -99.275196817687 gnorm: 0.002041441705 xtb: 6.6.1 (8d0f1dd)
N           -1.60146803654480        2.60542324669674        2.08517994585048
C           -1.68580506802381        2.07080464183936        0.97126507271947
C           -2.92201547009057        1.88180131300274        0.14885534978062
C           -3.43245423872186        0.45396552080613        0.29747649208823
C           -4.44661362939235       -0.00313546267617       -0.54576882707187
C           -4.93519662292826       -1.29644441735996       -0.45325526972600
O           -5.90496588414764       -1.82138878927651       -1.22560992472618
C           -6.52610457880794       -1.01922694156585       -2.20279958724744
C           -4.39457987487189       -2.18101549499378        0.52189125223664
O           -4.92873195391670       -3.41582674108730        0.53906063687065
C           -4.50272850212537       -4.33865705042099        1.51455115352213
C           -3.38769681089059       -1.71771298809056        1.35526653371204
C           -2.91269694752961       -0.41827813083826        1.24219640113389
C           -2.45719643854676        2.09304165459090       -1.30991456945674
C           -1.51817073679165        0.97844907117296       -1.77069354460170
C           -0.27732806721889        0.94055904606805       -0.96557300487290
N            0.38756207528809       -0.14695404272831       -0.72770277560978
C            1.72249955447353       -0.04704250129168       -0.16007257260164
C            2.77825191003471       -0.32663022878496       -1.24428298631073
C            4.17676629015788       -0.09857449459583       -0.74593811671157
C            4.79289195298630        1.13367408489820       -0.91327352284215
C            6.10131594773085        1.33605383013694       -0.50625828884160
C            6.82374227671891        0.30832386043479        0.08632154949461
O            8.10258891764075        0.37873008124415        0.49050223921722
C            8.83969485793237        1.55601781967672        0.25131882120035
C            6.19016974461908       -0.95124112818873        0.29157039889224
O            6.95849042572588       -1.88528663092049        0.88059439328730
C            6.43917582701985       -3.17542994335391        1.10049141475379
C            4.88014367573360       -1.12961737568263       -0.12873970026657
C           -0.03311574462475       -1.49310259135252       -1.09741825740733
C           -4.06528392357071        2.86877358709552        0.53417255692971
C           -4.64649432922219        2.53604654646150        1.90554436577650
C           -3.63140863129144        4.33023463915561        0.50211841828008
H           -4.86754566596029        0.66513278766561       -1.27845303069788
H           -7.02612583119094       -0.15549874550435       -1.75465262404351
H           -7.26852373298479       -1.65906824061241       -2.67572437362059
H           -5.81013433842244       -0.67897802560517       -2.95771856151919
H           -4.68795024348597       -3.96576911960600        2.52612201199998
H           -5.09560280219681       -5.23550446123292        1.34581465957255
H           -3.44107430481898       -4.58020225189367        1.40233534743695
H           -2.96673131483354       -2.36258491495086        2.10941537445356
H           -2.13941982577476       -0.08951296793064        1.91858805160304
H           -3.30856713710492        2.17804741332792       -1.98275087689916
H           -1.88000983037075        3.05622110240548       -1.36764768401861
H           -2.06016034608876        0.02364265024675       -1.79270355337794
H           -1.19764486044191        1.19580019594430       -2.79532721696174
H           -0.77614760466499        1.68608349022000        0.35635517415459
H           -0.88086265637895        4.21447442558600       -1.38113144481962
H            1.82806208332056       -0.75789613707576        0.66341182904168
H            1.85903655985684        0.96490887708999        0.22397239648049
H            2.58137931345623        0.33969168051417       -2.08610255693477
H            2.67980206284772       -1.35735711198321       -1.58830685036936
H            4.25599077324837        1.94282275832092       -1.38392143481130
H            6.55752112502367        2.29933433933410       -0.66473623210013
H            8.42381080285469        2.40791730692913        0.79714705352972
H            8.88053007256749        1.79045061434944       -0.81640816269914
H            9.84434885941740        1.35002486328545        0.61518298078900
H            7.24711714223070       -3.74042515313408        1.56107634021177
H            5.58149715585948       -3.15138976506152        1.77990541941950
H            6.15061934101183       -3.65727414381095        0.16135569816348
H            4.40055918473273       -2.08706362828271        0.00273811655129
H            0.10244734343148       -1.66526570788354       -2.16476756117738
H           -1.08432207908763       -1.63189164763767       -0.84919455895546
H            0.55482603902089       -2.21981675657706       -0.54236785046626
H           -4.85296268508445        2.73114879208780       -0.21505052830089
H           -3.87912458342730        2.63074456169899        2.66806352095938
H           -5.04642741646896        1.52536260811430        1.93282222366206
H           -5.45052562058407        3.22917523003106        2.13815869710154
H           -2.88771546032465        4.52279479718984        1.26997845456836
H           -3.22052062271318        4.61345332305964       -0.46239330997518
H           -4.49270091357438        4.96324997238599        0.69944835152582
H           -0.70347035271171        2.72282252138009        2.53765550565047
