25
 energy: 42.661770502389 xtb: 6.6.1 (8d0f1dd)
C            3.30969796446971        2.07781636175370        0.14096838347908
N            2.41946003453966       -0.24791821791334        0.03745248980299
C            2.56719178454582       -1.53910444978274        0.05811947690746
N            1.38250724285106       -2.24321308049825        0.02138913897875
C            0.39907225941994       -1.29537444171893       -0.01685143533747
C            1.05306714222647       -0.05738812725490       -0.00746818060736
C            0.25393761769688        1.14971045668322       -0.05669640715076
O            0.61571084869198        2.29403178353103       -0.13786870313678
N           -1.12976853738482        0.90192781884606       -0.04707433310920
C           -1.99938418221007        2.07985169620422       -0.03800680386988
C           -1.76296469983748       -0.30611620717887       -0.06363426058412
O           -2.97281520332804       -0.36545846975109       -0.08163885887020
N           -0.96153348220173       -1.45739228611698       -0.05758462491012
C           -1.71010400542322       -2.69811075929192       -0.07681724014013
H            3.75802859341920        2.21087204888241        1.06863654546448
H            3.85849428283938        2.06726197013972       -0.74860130088062
H            2.30434377612185        2.39325644854574        0.09483388888236
H            3.50122508355710       -2.07399499342788        0.04975313600167
H           -1.36257821532107        2.95497182881866       -0.02454457769315
H           -2.62223504339950        2.10836714100731       -0.92879210950769
H           -2.61310519965387        2.08694750261273        0.85712831544187
H           -1.53972186826323       -3.29978898272445        0.81578519425779
H           -1.51217170928158       -3.28558635843578       -0.97279916099054
H           -2.76699200461875       -2.39689228054995       -0.09149166886503
H            1.27840642484172       -3.24831404495629        0.03246359377146
