25
 energy: 41.849445082281 xtb: 6.6.1 (8d0f1dd)
C            3.42154994134982        2.35135369325300        0.15617424091237
N            2.39374603468856       -0.37549401004527        0.02457164391609
C            2.50251997601244       -1.66607824757783        0.03017686326916
N            1.30733723293778       -2.34445790137040        0.01184994684971
C            0.35095180993841       -1.37168561154699       -0.02370400238110
C            1.04345910917574       -0.15470871130316       -0.02030001181277
C            0.27128459664656        1.06599169371317       -0.07114930595233
O            0.68274511461909        2.19210704259441       -0.14227045552050
N           -1.10347995364625        0.85953671812479       -0.05256322366425
C           -1.92972389024905        2.07278821830171       -0.03336023771317
C           -1.77702351229109       -0.33230229991009       -0.06466821079455
O           -2.98810808663584       -0.34149407230513       -0.08160664920245
N           -1.01063586883337       -1.50796915332139       -0.06184241941559
C           -1.80047517778001       -2.72527744410285       -0.08268384274698
H            3.88418853504739        2.54098854984555        1.06325796072218
H            3.87075462902840        2.43326743757067       -0.77579049465147
H            2.38639533928678        2.53145757740900        0.14637978362690
H            3.41965006095370       -2.21188339290704        0.03418155838171
H           -1.25821752095423        2.91881190491736       -0.02336803336202
H           -2.55829705830911        2.13185075287739       -0.91892441474081
H           -2.52676614504217        2.10533177033885        0.87156594461237
H           -1.66245816841529       -3.34067304203420        0.80756187313158
H           -1.63260280254986       -3.32753845677466       -0.97648277747416
H           -2.85068349131632       -2.37985148127972       -0.09904972552784
H            1.18116767237073       -3.34539796127718        0.02718493236893
