25
 energy: 33.718250015196 xtb: 6.6.1 (8d0f1dd)
C            3.67655363804483        2.93780399697032        0.18490747726427
N            2.33037410402869       -0.62266705307690       -0.02224402530953
C            2.38779324981500       -1.91893060589338        0.00052870519870
N            1.14652900525357       -2.51723663819691        0.00666214243324
C            0.24736581238974       -1.49302115120422       -0.02423279639914
C            1.00650655592899       -0.32029610853398       -0.03393344917881
C            0.32741224756862        0.95506819739066       -0.05396322637263
O            0.82768751803542        2.05771116281944       -0.07407441177281
N           -1.06356154996051        0.82066232358313       -0.04178246612500
C           -1.83288989827599        2.06281974010259       -0.02503519483353
C           -1.81920280636814       -0.33470064538856       -0.06216887707929
O           -3.03047557441111       -0.29242645817622       -0.08069952847205
N           -1.11919234515401       -1.54788140828262       -0.05820092954682
C           -1.91398481844525       -2.76903861588781       -0.08081346894372
H            4.11428431441999        3.11591496414356        1.12932931735539
H            4.13640199252687        3.03051059956670       -0.76417864310215
H            2.64595137728222        2.79048189644171        0.15017334152514
H            3.29708077039433       -2.48305822220147        0.02889539951622
H           -1.12115048406866        2.88426674035281       -0.01401487097702
H           -2.45787109249798        2.13293660075386       -0.91385079722333
H           -2.46141710364550        2.08358116663518        0.86311757626158
H           -1.73846354492865       -3.38026145643381        0.80837765996294
H           -1.71419969907252       -3.36516672806942       -0.97330342701662
H           -2.97417341661608       -2.49070649330154       -0.09074342358704
H            0.97499933929452       -3.51316105147757        0.01461355829479
