25
 energy: 39.417459704036 xtb: 6.6.1 (8d0f1dd)
C            3.50019056536239        2.54238689303617        0.17607969944614
N            2.37221100411577       -0.46120319993116        0.02020082840636
C            2.46123217571525       -1.75224159554584        0.02374139965470
N            1.25491319363465       -2.40921190127181        0.01341880330290
C            0.31404587412631       -1.41453005202718       -0.02585946979308
C            1.02910597675213       -0.21164404386825       -0.02499477816366
C            0.29147796418478        1.02969463685730       -0.07566574801029
O            0.70301898233751        2.15788195759250       -0.13493527147997
N           -1.08142027735400        0.84270033624434       -0.05007927983030
C           -1.88383491008075        2.06940039467371       -0.02851053150892
C           -1.78562348008886       -0.33035199501151       -0.06332325832355
O           -2.99761644850439       -0.31092722488594       -0.07942209702374
N           -1.04962790073834       -1.52152188548822       -0.06158990529270
C           -1.85523920810842       -2.73551421374741       -0.08532774182106
H            3.97284320731922        2.74042669056778        1.07972451051241
H            3.94273734580085        2.65234664400769       -0.76072069415320
H            2.45458538306904        2.63046364523301        0.16566797554050
H            3.37163301143293       -2.30142878856700        0.05246687133977
H           -1.19398143422743        2.90485727911589       -0.02079293481233
H           -2.51393683104750        2.13923969316993       -0.91232475210847
H           -2.47155761127627        2.09912021444958        0.88207686624557
H           -1.73910497581488       -3.35778509296587        0.80298129357381
H           -1.70983448929831       -3.34300954432906       -0.97980974365900
H           -2.90278066998289       -2.39330631954243       -0.09916261222394
H            1.12142844865896       -3.41102808373309        0.02933679505355
