25
 energy: 42.492012903483 xtb: 6.6.1 (8d0f1dd)
C            3.28285386172859        1.98876058220379        0.12911571468035
N            2.42238913316900       -0.20606279099620        0.04042620615436
C            2.58771234358161       -1.49887923667719        0.06823536932039
N            1.40377633153068       -2.20658302544050        0.02641142127674
C            0.41176403879247       -1.26846714260535       -0.01470335344050
C            1.05174021576119       -0.02454817443231       -0.00260882947855
C            0.24179955237683        1.17605584289166       -0.04874673595356
O            0.59277961207542        2.32715109933983       -0.12330723392218
N           -1.14411861734754        0.91538196400398       -0.04554584979783
C           -2.02451497597124        2.08418268669124       -0.03903048060103
C           -1.76502241573233       -0.29642220197867       -0.06275819988471
O           -2.97377450724829       -0.37709955823087       -0.08249261875190
N           -0.94939816956416       -1.43863993790285       -0.05574516559313
C           -1.68295914257139       -2.68615648805082       -0.07520540380348
H            3.73250068613083        2.09768931563535        1.06509913014613
H            3.88440429714070        1.95528347385841       -0.73297302758211
H            2.29097688598432        2.35222572538492        0.05010750214684
H            3.52716080252345       -2.03531526919411        0.05894078188275
H           -1.39788831088210        2.96771726239272       -0.02322278850255
H           -2.64568977535740        2.10497998885741       -0.93145915925283
H           -2.64292160497011        2.08195774953572        0.85323443397208
H           -1.50152068278833       -3.28525511348369        0.81745386642641
H           -1.47336923598698       -3.27022490341611       -0.97135775366393
H           -2.74053786597485       -2.39484655152805       -0.08945795025718
H            1.29734835594211       -3.21060638998090        0.03164968112939
