25
 energy: 36.684838602225 xtb: 6.6.1 (8d0f1dd)
C            3.56996880960762        2.74496377132725        0.18866576856281
N            2.36558786160681       -0.55318241021480        0.00900878408598
C            2.43648297087765       -1.84570095972898        0.01541214720407
N            1.21041791569839       -2.47437787337004        0.01503583019616
C            0.29133064737450       -1.46022621438182       -0.02232582353981
C            1.02812161460638       -0.27064993494021       -0.02677873113152
C            0.31637970411097        0.98986339973387       -0.06589660074205
O            0.77742644425205        2.10258533535406       -0.12511496712980
N           -1.06632417396500        0.83143276931986       -0.04124469031174
C           -1.84326714991496        2.06477490899676       -0.02172165326100
C           -1.79660827789686       -0.33446562259184       -0.06011440964831
O           -3.00897094845665       -0.31109895739671       -0.08030813727321
N           -1.07689420691418       -1.53503428445528       -0.05971992683230
C           -1.88456049675161       -2.74666616902225       -0.08460466705618
H            4.04021579114012        2.93832810205409        1.10265889243571
H            4.00377961465245        2.87466906394190       -0.75949936963097
H            2.52528606323216        2.72767612950703        0.16214206187040
H            3.35498216009528       -2.39306353884197        0.05135668458851
H           -1.13234136832316        2.88551379064847       -0.01703542353260
H           -2.46742329392001        2.13958406622411       -0.90882770417546
H           -2.45488169101192        2.10113082119880        0.87725179320492
H           -1.75264533644453       -3.36248310733908        0.80472633583495
H           -1.72634516866978       -3.34697199143447       -0.98093169846731
H           -2.93853880841543       -2.43703185866622       -0.09575111323101
H            1.05735333065062       -3.47442832929677        0.02328150460313
