25
 energy: 38.055982391505 xtb: 6.6.1 (8d0f1dd)
C            3.53604086115379        2.64342118112932        0.18304803352821
N            2.36912431044235       -0.50841374228224        0.01574037635575
C            2.44940498389719       -1.80024611075082        0.02041358635814
N            1.23308056392613       -2.44274376367908        0.01643633269110
C            0.30185442326364       -1.43909780293621       -0.02560700362140
C            1.02950639237183       -0.24364105698094       -0.02728467665804
C            0.30503857318140        1.01173162225551       -0.06958164223166
O            0.74192420110579        2.13095133621375       -0.13062032755269
N           -1.07487340452792        0.83734872357446       -0.04287511846075
C           -1.86160086190572        2.06660415132948       -0.02504529439384
C           -1.78934590960681       -0.33253704399077       -0.06174449416332
O           -3.00214250029101       -0.30639510452471       -0.07997553332168
N           -1.06440967724474       -1.53217857617996       -0.06165314258700
C           -1.87637280797518       -2.74395107509928       -0.08563644209183
H            4.00518634944936        2.85134165308998        1.08824378024637
H            3.98547497909972        2.76100241170263       -0.75396718853684
H            2.49087652448734        2.67600392568551        0.15627304251550
H            3.36339276738958       -2.34957706290682        0.05411413438171
H           -1.16129248800953        2.89504669784921       -0.02091243531907
H           -2.49244825197479        2.13756288571717       -0.90780626515557
H           -2.44429962959543        2.10007508945128        0.88729234664056
H           -1.74971309304357       -3.36192497115303        0.80396401876357
H           -1.72271180832284       -3.34752569177290       -0.98088402177557
H           -2.92565480442095       -2.41281848653079       -0.09874853990399
H            1.09019401635688       -3.44364330706469        0.02840437462583
