25
 energy: 41.000935630812 xtb: 6.6.1 (8d0f1dd)
C            3.45633253873086        2.44222406490101        0.16451758079907
N            2.38214400543261       -0.41681781520336        0.02087099425819
C            2.48151476121939       -1.70746152576159        0.02756978161136
N            1.28212032369993       -2.37652275693583        0.01085012072160
C            0.33228260695613       -1.39208884051507       -0.02526539863191
C            1.03602636349200       -0.18189279456527       -0.02386252338939
C            0.27753067514780        1.04755304886303       -0.07371266766541
O            0.67728551020273        2.17920306897721       -0.13699258653741
N           -1.09383863229287        0.84950010023883       -0.05281757008373
C           -1.90733594026177        2.07174906930291       -0.03141598052629
C           -1.78326285382107       -0.33392250396380       -0.06391766178030
O           -2.99337517237931       -0.32564365612900       -0.08091735933805
N           -1.03008011952756       -1.51621553400954       -0.06167639950965
C           -1.82651389729564       -2.73193846331541       -0.08383548439856
H            3.92353955608386        2.64517415509725        1.06607844936785
H            3.88486424491033        2.55781659857837       -0.77398987225037
H            2.41449253459114        2.57865259312951        0.16232075961233
H            3.39797893060865       -2.25058302576865        0.05147802355565
H           -1.22792615491420        2.91388617856801       -0.02283602808473
H           -2.53703044692722        2.13767636897037       -0.91569938990017
H           -2.49872990416585        2.10222905531906        0.87699502499791
H           -1.70042244971965       -3.35144762964771        0.80499314126066
H           -1.67096711642257       -3.33700699763745       -0.97799469936462
H           -2.87408101525201       -2.38998331152261       -0.09807948721112
H            1.15366546136898       -3.37840172376938        0.02891078006801
