25
 energy: 0.000000000000 xtb: 6.6.1 (8d0f1dd)
C            3.23720163006194        1.16630919979326        0.08434469647475
N            2.29877817382611        0.07527477071623        0.03981603040599
C            2.58028210190900       -1.21425402444508        0.03006176031096
N            1.43813958087363       -1.93419271955128        0.00098261760884
C            0.39035688448383       -1.05887472636071       -0.00790371836672
C            0.93510056364412        0.21347819449412        0.01709077491437
C            0.09450143893243        1.40504303904423       -0.00410947031874
O            0.49712751527797        2.54126714362870       -0.00342325688240
N           -1.25076640035757        1.06271879480407       -0.03085478223738
C           -2.21907211982101        2.15522099834493       -0.05001256985998
C           -1.81739487048744       -0.20012725993278       -0.04692818574614
O           -2.99983886758376       -0.37846417018721       -0.07008878229737
N           -0.92618586207120       -1.30210215599479       -0.03682761578324
C           -1.46982264913417       -2.64643102187190       -0.06029820460571
H            3.71247264356769        1.21471455160235        1.06488849150277
H            4.00791497605742        1.03430808813993       -0.67357694370751
H            2.69910007168542        2.09770118228144       -0.09130154882931
H            3.56654120610678       -1.63682992603973        0.04233140067262
H           -1.67107961066214        3.09322851271934       -0.02552706933167
H           -2.82428953597071        2.09428624779827       -0.95318082946668
H           -2.87644029173232        2.07745725625962        0.81450067533302
H           -1.17061996399332       -3.19584890659852        0.83242232437030
H           -1.14560257411436       -3.17511610292205       -0.95688275822323
H           -2.55549792440841       -2.55659984320617       -0.07459039797972
H            1.38130855184625       -2.94313852034425       -0.01389874181052
25
 energy: -4.315174501221 xtb: 6.6.1 (8d0f1dd)
C            3.25374607910698        1.17976566378849        0.07151976275646
N            2.31536832283491        0.08580493002374        0.03386127039461
C            2.59671589994152       -1.24562737975398        0.03961816664589
N            1.42143068869488       -1.95088721760900        0.01558176940371
C            0.39270322665357       -1.06475720215395        0.00105782587094
C            0.93339438304606        0.21220019800697        0.02684641318818
C            0.10463159772621        1.38629564253191        0.00497579483506
O            0.50402086042917        2.55056978491394        0.00652998227927
N           -1.25863643292983        1.04637736086526       -0.03129832267317
C           -2.21601223873143        2.14581688201098       -0.05925913295430
C           -1.82567414557564       -0.20305306122371       -0.05092927596870
O           -3.02262219709541       -0.38146155101674       -0.08232839028935
N           -0.93967932640245       -1.30613217964752       -0.03437569901721
C           -1.48565142007068       -2.64588060118959       -0.06062071910096
H            3.79163555262327        1.16738956790220        1.01992817048820
H            4.01479496961009        1.22573842768915       -0.74259008980811
H            2.67992213591643        2.10145331789061       -0.00678983421136
H            3.57045325206411       -1.67851940848189        0.07058241153041
H           -1.65391893752018        3.07693075693582       -0.03744344384928
H           -2.81906010050630        2.08973326971000       -0.96513095428177
H           -2.87733214229402        2.08172850133696        0.80424098052602
H           -1.19066331226234       -3.19908292412422        0.83297281152569
H           -1.15749235799640       -3.17947554611584       -0.95481582525064
H           -2.57084176360272       -2.55078913202671       -0.08004893233094
H            1.35098207427635       -2.95510949809088        0.00494915643864
25
 energy: 2.292309660331 xtb: 6.6.1 (8d0f1dd)
C            3.27208622404711        1.19633595368899        0.05283001264765
N            2.33992104288785        0.09355957667994        0.01812852235194
C            2.61107778473274       -1.28414094569486        0.05710849032114
N            1.39905001876458       -1.96654602676389        0.04087179505184
C            0.39580163682720       -1.07212154604569        0.01574145449632
C            0.93425714794013        0.20990072911622        0.03318540263721
C            0.12103115902034        1.35586356535177        0.01486769855542
O            0.50275645204340        2.54414743771657        0.02535724307002
N           -1.26853698038478        1.02630805395087       -0.03399094813890
C           -2.20935220779308        2.13591418029870       -0.07468186087249
C           -1.82958854048394       -0.20661875979541       -0.05877305712818
O           -3.03588369294898       -0.38632613822224       -0.10329759834511
N           -0.95487631456450       -1.30989291264663       -0.02969164786398
C           -1.50699859927713       -2.64434663740319       -0.06047282394161
H            3.93358151310038        1.06926516518350        0.93291261401699
H            3.99146748824127        1.52468904293875       -0.85675119673398
H            2.64458863664019        2.10686255544148        0.15070986349669
H            3.56708335657037       -1.73401256095858        0.12658784376122
H           -1.62957981570161        3.05780301175633       -0.05796517786700
H           -2.80977171900272        2.08259967505270       -0.98336437333770
H           -2.87687812837171        2.09037135775940        0.78634629416770
H           -1.22426056258532       -3.20488588801006        0.83457419289097
H           -1.17704800642495       -3.18651539817177       -0.95114931581168
H           -2.59192103395601       -2.54131590096356       -0.08898999079888
H            1.31420780861528       -2.96786898808731        0.03694045952162
25
 energy: 13.363699230104 xtb: 6.6.1 (8d0f1dd)
C            3.28307907194771        1.21498149570289        0.03401670723317
N            2.35660776864934        0.09872703640350        0.00057253090746
C            2.61468827904018       -1.30426479668491        0.06981193493359
N            1.38796558671077       -1.97467553966242        0.06443875840777
C            0.39618647140348       -1.07923985055745        0.02619975535039
C            0.93718760368766        0.20614457279880        0.03002010049221
C            0.12897124853761        1.33980242735342        0.02371533952811
O            0.49389550452656        2.53598228438040        0.05092291997425
N           -1.27544577128855        1.01540822134208       -0.03479772122472
C           -2.20489013685371        2.12986298154144       -0.08673000908346
C           -1.83213175763633       -0.21256012991725       -0.06683249288316
O           -3.04063994619938       -0.39447231590447       -0.12304922020531
N           -0.96255418035751       -1.31520263968189       -0.02570020413044
C           -1.52476097112623       -2.64563524473791       -0.06194838333503
H            4.06393609260874        0.98404526975051        0.82043201970673
H            3.94594765924687        1.75434874516575       -0.93001045162198
H            2.64414854663116        2.10734556366914        0.29467260827484
H            3.55888830520098       -1.77203445527399        0.18766938817441
H           -1.61241476157014        3.04379148688367       -0.07482790874127
H           -2.80193617232458        2.07424374700323       -0.99768701741136
H           -2.87630622717693        2.09728818544221        0.77203656610374
H           -1.25787144819995       -3.21273271570914        0.83442949387687
H           -1.19639916935824       -3.19297947733707       -0.95063588738811
H           -2.60958200821967       -2.53249250414278       -0.09957951727110
H            1.29564508005619       -2.97665374565570        0.06989458647962
25
 energy: 19.736325914324 xtb: 6.6.1 (8d0f1dd)
C            3.29158945188040        1.22641164430618        0.02090937761874
N            2.36533303419893        0.10093364084667       -0.01320903077111
C            2.61053475866611       -1.30877006944539        0.07632890244507
N            1.38583797436018       -1.97644398639505        0.08211735342917
C            0.39363247427561       -1.08464634660361        0.03062103085695
C            0.94073795787300        0.20120940241912        0.01834010693182
C            0.12976915212714        1.33532080354584        0.03203771769238
O            0.48172949816755        2.52571032690120        0.08016129302566
N           -1.27919032383526        1.01122541885598       -0.03188211372789
C           -2.20316321794081        2.12642312467584       -0.09157892229815
C           -1.83420676715507       -0.21930407085087       -0.07252049686147
O           -3.03959795235455       -0.40195207662604       -0.13814015362999
N           -0.96491103478060       -1.32086598553449       -0.02312387513797
C           -1.53816474916579       -2.64884887815848       -0.06542998578682
H            4.13688027791120        0.94231391343664        0.70421165911414
H            3.91220316938014        1.90888299172801       -0.94890555897413
H            2.68771146236174        2.08457158785413        0.37866360245509
H            3.54526385986182       -1.79113328258952        0.24667408046870
H           -1.60443938389084        3.03528883730171       -0.08359647645755
H           -2.79810150122694        2.06627860155964       -1.00340449988814
H           -2.87600512831922        2.10191538733229        0.76575774735662
H           -1.28640728314405       -3.22139056135344        0.83128232255108
H           -1.21341177284801       -3.19786795721078       -0.95375011265985
H           -2.62276782514029       -2.52557969211542       -0.11002278552054
H            1.29135853667364       -2.98065417170808        0.09549271391540
25
 energy: 21.492642740174 xtb: 6.6.1 (8d0f1dd)
C            3.29755567579882        1.22665862821571        0.01549095817692
N            2.36483696416048        0.10042030518218       -0.01790052765919
C            2.60219144854128       -1.29726390624253        0.06862837765079
N            1.39198953783796       -1.97143625671419        0.09458848330924
C            0.38868335712917       -1.08597244764064        0.03215799927428
C            0.94309808456054        0.19703277144045        0.00627799667306
C            0.12667102687627        1.34128460944706        0.03745813162428
O            0.47359939806301        2.51708726862117        0.10048084400183
N           -1.27739386156312        1.01237818093994       -0.02998119571387
C           -2.20341052710727        2.12513030940646       -0.09823184015352
C           -1.83567950373294       -0.22431319209474       -0.07542555431837
O           -3.03581154781569       -0.40382382179217       -0.15036217274851
N           -0.96269821067986       -1.32477068803903       -0.01958739504860
C           -1.54345209660718       -2.65248207685648       -0.06518451262944
H            4.18110969260545        0.89483692249803        0.58268939088014
H            3.86382604868214        2.00176621538980       -0.95066530287715
H            2.74049486521362        2.04463621638033        0.47706292762696
H            3.52769837463901       -1.78377470424840        0.28887472366814
H           -1.60770454801033        3.03453273506581       -0.09433153662915
H           -2.79738275440020        2.05782292247935       -1.00994662975348
H           -2.87690512382555        2.10615727915684        0.75815044411432
H           -1.30174090248469       -3.22498814568681        0.83246714671605
H           -1.22015991939226       -3.20148049513117       -0.95271379132704
H           -2.62745369335975       -2.52275925716734       -0.11436513000931
H            1.30025288280709       -2.97765077043755        0.11140206129881
25
 energy: 20.110216690346 xtb: 6.6.1 (8d0f1dd)
C            3.29855598483233        1.22223828028994        0.01709709470507
N            2.35548511881154        0.10376632358319       -0.01289189290299
C            2.59551968433358       -1.27751732275019        0.05604001622145
N            1.39728300510045       -1.96148475686419        0.10091849753311
C            0.38340102033615       -1.08158938124432        0.03316793638853
C            0.93927149192258        0.19904667298890        0.00085866536116
C            0.12070875095728        1.34913110246945        0.03562421531538
O            0.46839498135128        2.51789386656348        0.11183838929809
N           -1.27530097141977        1.01321300897547       -0.03383457231933
C           -2.20678054152700        2.12337896552100       -0.10634684099711
C           -1.83747560171236       -0.22639578571796       -0.07840982510186
O           -3.03446211263043       -0.40210734197545       -0.15902328669653
N           -0.96112608220377       -1.32526247411483       -0.01688527351499
C           -1.54118633385853       -2.65475610568997       -0.06156724439484
H            4.22839457711609        0.83113392408544        0.48020623377917
H            3.80289929593338        2.02896691486029       -0.94833369096312
H            2.79227966546754        2.01465954668879        0.57631117427034
H            3.51538222687346       -1.75738627405627        0.31400101402528
H           -1.61750291470681        3.03701163335824       -0.10575981499454
H           -2.80054079563920        2.05015414106145       -1.01763000562817
H           -2.88033068962584        2.10645151786235        0.75001583245921
H           -1.30125582123516       -3.22362188974957        0.83775745940618
H           -1.21492343633489       -3.20388288011858       -0.94729004735676
H           -2.62464888937887       -2.52576844126120       -0.11351989341616
H            1.31017305517297       -2.96824464259338        0.11468975567061
25
 energy: 15.399897764341 xtb: 6.6.1 (8d0f1dd)
C            3.29985924842171        1.21603718081275        0.01844053989930
N            2.34648571545437        0.10677092077887       -0.01113542274704
C            2.59322973436224       -1.25923407746589        0.04299975867327
N            1.40208316775211       -1.95149185898483        0.10076036251147
C            0.38129319519740       -1.07515301607636        0.03138513019706
C            0.93631920932920        0.20385570871408       -0.00515984126182
C            0.11491830182658        1.35583459242661        0.03220178263224
O            0.46617258734981        2.52144650748520        0.11865607227111
N           -1.27230024715977        1.01433339947506       -0.03752677767140
C           -2.21000075894355        2.12213444439680       -0.10686839576805
C           -1.83717705805697       -0.22629146507209       -0.07944549706392
O           -3.03170943952321       -0.39971146303908       -0.16110844159910
N           -0.95842611196527       -1.32345421680410       -0.01615288250331
C           -1.53598353338752       -2.65484965888299       -0.05942413084438
H            4.20902854303364        0.81560813863860        0.41413333296243
H            3.76550733769076        1.99653459502893       -0.91320212310818
H            2.84835552595229        1.98004691916501        0.60779493203535
H            3.51029033928652       -1.72980728637483        0.33071637192511
H           -1.62579141389785        3.03969522122298       -0.10681282234654
H           -2.80507844518411        2.04674685353119       -1.01688779707695
H           -2.88182124128185        2.10237377757498        0.75076987990786
H           -1.29392079480896       -3.22179950719625        0.84036545293129
H           -1.20761038081330       -3.20338381429694       -0.94454959633226
H           -2.61928805615819       -2.52873791428774       -0.11178911214004
H            1.31777924345987       -2.95847537859786        0.10887312066368
25
 energy: 11.653622622476 xtb: 6.6.1 (8d0f1dd)
C            3.30169807145714        1.21812660940648        0.01582127773310
N            2.34049625663096        0.11542301745168       -0.01351364121435
C            2.59610458652808       -1.25109517085292        0.03207886477070
N            1.40236002201370       -1.94626062843368        0.10203832005705
C            0.38196397223833       -1.07019072214095        0.03334355379049
C            0.93161717093235        0.21068917058020       -0.00324149743327
C            0.10965696304008        1.35901339149943        0.03165058031420
O            0.46335599947583        2.52872458484711        0.11651660930643
N           -1.27513954637113        1.01471763826553       -0.04251949755896
C           -2.21506852356309        2.12137726096406       -0.11243397381573
C           -1.83813341266943       -0.22535613653054       -0.08082168933906
O           -3.03386767098648       -0.40064753018002       -0.16411708774290
N           -0.95841026632088       -1.32165977624432       -0.01429745419958
C           -1.53153771726335       -2.65432129023576       -0.05628735721681
H            4.23603113853075        0.77078749755267        0.36424292163257
H            3.72254298773563        1.97984325119481       -0.91093832246701
H            2.87787989249446        1.97775015517332        0.67441471106344
H            3.51125626621865       -1.71457241129952        0.34210489554363
H           -1.63174531174993        3.04008959123637       -0.11212200978854
H           -2.80925644311816        2.04453334512171       -1.02281643415754
H           -2.88643675057418        2.09980489942252        0.74556836948658
H           -1.28720108023824       -3.21977278131627        0.84449549187886
H           -1.19997342666577       -3.20360692033029       -0.94027398297963
H           -2.61502818334341       -2.53162390688352       -0.10976759227828
H            1.31904967350406       -2.95274453609604        0.10790884076176
25
 energy: 9.438196287599 xtb: 6.6.1 (8d0f1dd)
C            3.30369063968541        1.22345723841102        0.01692265919366
N            2.33986359268756        0.12055954007495       -0.01539766536539
C            2.60141457349122       -1.25393969412240        0.02858251641289
N            1.40138774704113       -1.94670349117449        0.10080988886613
C            0.38516523232065       -1.06896884006953        0.03535809541205
C            0.93029200302937        0.21404479399039        0.00213260420900
C            0.10798452860646        1.35834792355955        0.03359751342962
O            0.46300308285761        2.53183220512274        0.10901444307832
N           -1.27838799861658        1.01544223227847       -0.04333483161713
C           -2.21736304465896        2.12224628729861       -0.11249421060689
C           -1.83769858488279       -0.22394432882584       -0.08032935011890
O           -3.03522789392489       -0.40284566922411       -0.16258518270381
N           -0.95816825900589       -1.32033582826327       -0.01377614835109
C           -1.52918611062340       -2.65285690238260       -0.05676490393303
H            4.24038707485575        0.76923523308687        0.36603846181610
H            3.70578959270359        1.96123324292497       -0.90407562511755
H            2.88186587633676        1.97587378780207        0.67109243064942
H            3.51530969337963       -1.71361998092842        0.34341732304229
H           -1.63200429395628        3.03964235145962       -0.11049939411238
H           -2.81064235339895        2.04673119671429       -1.02349298126864
H           -2.88888762587999        2.09884959438777        0.74536785554167
H           -1.28375387875930       -3.21936150784917        0.84368644087433
H           -1.19683956063500       -3.20186239361160       -0.94104906557217
H           -2.61298654490415       -2.53140878638506       -0.11020303291352
H            1.31720718018702       -2.95261960210276        0.10501605530216
25
 energy: 7.898835782681 xtb: 6.6.1 (8d0f1dd)
C            3.30873198767301        1.22727967795318        0.01341656028340
N            2.34122858790982        0.12238728621666       -0.02672521071355
C            2.60844898254606       -1.26232102927680        0.01736632292311
N            1.40029950363613       -1.95018630948745        0.09674778551763
C            0.38963785398401       -1.06980916177194        0.03622381157697
C            0.93120084430179        0.21483417708479        0.00489192800574
C            0.10841452627276        1.35637141210701        0.03289589716889
O            0.46546069501684        2.53305729096874        0.09405222298608
N           -1.28064478062658        1.01683996444343       -0.04380816987612
C           -2.21786102294317        2.12414651854090       -0.11241303151696
C           -1.83592406305913       -0.22201956733764       -0.07875950665146
O           -3.03533685889750       -0.40496406083435       -0.15710667112281
N           -0.95724037728147       -1.31908717905758       -0.01240192938662
C           -1.52736800694500       -2.65083243655154       -0.05554769706613
H            4.22679201987382        0.77569849232139        0.37204288063182
H            3.69025335061991        1.95783484363366       -0.89562634357975
H            2.88027647474990        1.97081578676344        0.68427571373037
H            3.51974777717779       -1.71723768984072        0.34740750602289
H           -1.63013409588372        3.03982500156254       -0.10958636043506
H           -2.81061081439892        2.04996442852791       -1.02382199868797
H           -2.88987800169073        2.09993642630555        0.74514052338995
H           -1.28092416052104       -3.21837222663568        0.84439992011915
H           -1.19547806923943       -3.19986269117632       -0.94032323142934
H           -2.61145830162362       -2.52975577900940       -0.10817116360086
H            1.31458061728439       -2.95551457327776        0.10246413785777
25
 energy: 8.215126898551 xtb: 6.6.1 (8d0f1dd)
C            3.30800234250817        1.22794931295150        0.01505632810786
N            2.34050678318267        0.12090565702951       -0.02783899736027
C            2.60816362732112       -1.26405811273260        0.01354319987334
N            1.40029337966368       -1.95120079745454        0.09557751910330
C            0.38926238421945       -1.07104795524152        0.03646982924928
C            0.93152719864958        0.21295845638014        0.00535761703990
C            0.10888373512211        1.35596545544995        0.03100307829106
O            0.46597313264620        2.53154129580055        0.09124657820322
N           -1.28029996402870        1.01710190531734       -0.04311633434245
C           -2.21701670738071        2.12452015413427       -0.11221662354330
C           -1.83573451434111       -0.22222122527286       -0.07826795908660
O           -3.03482552786273       -0.40502654579329       -0.15564351680058
N           -0.95718605487367       -1.31935588176753       -0.01205088485073
C           -1.52792329928180       -2.65095947222631       -0.05560648518875
H            4.23396183762262        0.77732895986178        0.37168508416696
H            3.68428795499842        1.96968443747826       -0.89081839929988
H            2.88001707694910        1.96472117480657        0.68210521173519
H            3.51784601785059       -1.71689373016577        0.35183083237522
H           -1.62930124215698        3.04010477057637       -0.10983772741083
H           -2.80975397191140        2.05037981107702       -1.02369920065613
H           -2.88945586108066        2.10103630649437        0.74500643383820
H           -1.28187174477298       -3.21856241915295        0.84414990749635
H           -1.19635512304610       -3.19965003236503       -0.94056917632125
H           -2.61196236649899       -2.52952601038767       -0.10808421991688
H            1.31517557443806       -2.95666691262552        0.10175180144499
25
 energy: 8.054698848469 xtb: 6.6.1 (8d0f1dd)
C            3.30722464587730        1.22767678531387        0.01357731649145
N            2.33943530247817        0.11896545967980       -0.03113992637061
C            2.60774500394340       -1.26467301865999        0.00588472703152
N            1.40087144309890       -1.95157392388550        0.09453989214535
C            0.38857225548777       -1.07183244877683        0.03722688057453
C            0.93230677938022        0.21108822938213        0.00558314691378
C            0.10938769738110        1.35619810359159        0.02858885151189
O            0.46688176871679        2.53021526871826        0.08889521124512
N           -1.27898208951396        1.01740663259167       -0.04218121502108
C           -2.21586474270718        2.12459276318675       -0.11232410065239
C           -1.83551684063057       -0.22251439548171       -0.07749869262154
O           -3.03411076212277       -0.40445707449461       -0.15489650873993
N           -0.95676869581531       -1.31943037797562       -0.01103960855686
C           -1.52824764596643       -2.65114157211073       -0.05512328844029
H            4.23764775127750        0.77941872948953        0.36772130340154
H            3.67745494110775        1.97703854338140       -0.88326262654443
H            2.88073330128282        1.95818204178646        0.68772348287951
H            3.51450812012351       -1.71367911579237        0.35651399940504
H           -1.62879918148123        3.04054486905545       -0.11046283102470
H           -2.80855599235248        2.05019352565094       -1.02392955959350
H           -2.88869055962183        2.10169697744514        0.74456113936343
H           -1.28268460956606       -3.21867670250887        0.84453510444374
H           -1.19677770389453       -3.19944392995726       -0.94018925883746
H           -2.61223026652448       -2.52950985261014       -0.10767296915770
H            1.31667474797756       -2.95725691484730        0.10140342630076
25
 energy: 8.007975206410 xtb: 6.6.1 (8d0f1dd)
C            3.30693048675614        1.22706248785288        0.01105279609523
N            2.33992416272145        0.11712227372592       -0.03566693719392
C            2.60822237646299       -1.26629730114698       -0.00147869354768
N            1.40107717548090       -1.95214803100273        0.09345236858455
C            0.38847196781084       -1.07221125588834        0.03797675635411
C            0.93373568481854        0.20991694263945        0.00568940715482
C            0.11045832171592        1.35600948125062        0.02748689885453
O            0.46794800955739        2.52948718695079        0.08790548209343
N           -1.27764015206852        1.01742755791666       -0.04103718110734
C           -2.21460788242019        2.12450489630608       -0.11219837783822
C           -1.83514118613877       -0.22261693051711       -0.07702946138231
O           -3.03357865939939       -0.40370029940433       -0.15504886945577
N           -0.95636164157252       -1.31927247044148       -0.01005551938255
C           -1.52856305703335       -2.65103492406871       -0.05456701818289
H            4.23693902980308        0.78301871037299        0.37096309974359
H            3.67399148851619        1.98256901276739       -0.88051162143238
H            2.87734332458519        1.95388624645532        0.68962788094679
H            3.51215888688727       -1.71246042350794        0.36130589660706
H           -1.62799806237277        3.04072926321331       -0.11048304259113
H           -2.80713423862328        2.04996224033650       -1.02399249534183
H           -2.88781834819621        2.10192132836447        0.74435955962607
H           -1.28348155871361       -3.21876040339307        0.84498937642664
H           -1.19720172623756       -3.19913392821334       -0.93972287106490
H           -2.61251091053828       -2.52904796149985       -0.10729750505407
H            1.31705117613449       -2.95790509689644        0.10131396723532
25
 energy: 7.714875962659 xtb: 6.6.1 (8d0f1dd)
C            3.30660408510878        1.22672256956982        0.00911412432627
N            2.34039882943712        0.11662581063162       -0.03810029745226
C            2.60872430028899       -1.26654262393567       -0.00555993652691
N            1.40117737886210       -1.95193315436533        0.09309089008898
C            0.38856030475705       -1.07177881673565        0.03849830197835
C            0.93446503675593        0.21009474471614        0.00564150629867
C            0.11079230380080        1.35608239971031        0.02782181847782
O            0.46812670433422        2.52961762421616        0.08895344658587
N           -1.27694656554421        1.01730209430750       -0.04047416016297
C           -2.21421360579237        2.12428421174491       -0.11204140594840
C           -1.83491983172396       -0.22267824444832       -0.07709620033183
O           -3.03328672623932       -0.40322305127938       -0.15604713108620
N           -0.95604916756032       -1.31907228405036       -0.00947040184879
C           -1.52840779351470       -2.65093362094327       -0.05424262095607
H            4.23576509781522        0.78462281786394        0.37428312940921
H            3.67304143468010        1.97993940518626       -0.88009588287314
H            2.87553272566430        1.95329138224100        0.68871780222962
H            3.51071374982294       -1.71103843377187        0.36425117452992
H           -1.62794641748094        3.04076481120444       -0.11021077025048
H           -2.80655793681545        2.04949981046431       -1.02393718630584
H           -2.88756139211043        2.10154749212587        0.74440240590905
H           -1.28351044318418       -3.21879381702449        0.84527499624379
H           -1.19692830210261       -3.19893570280509       -0.93941385958318
H           -2.61232640893695       -2.52878069301320       -0.10724615129910
H            1.31696730761385       -2.95765612943754        0.10092030469476
25
 energy: 7.634413141286 xtb: 6.6.1 (8d0f1dd)
C            3.30624275181215        1.22604944963581        0.00748073274837
N            2.34152747550300        0.11608322998579       -0.03983019887373
C            2.60937991125509       -1.26702449429897       -0.00837528795601
N            1.40104235020044       -1.95175329536989        0.09303000012377
C            0.38883607479929       -1.07115803985442        0.03872215471064
C            0.93523349801239        0.21062117497150        0.00489888156611
C            0.11122351962245        1.35596647070137        0.02904378082753
O            0.46798657572609        2.52975917171464        0.09204811477793
N           -1.27634112135726        1.01702312017450       -0.04011262553803
C           -2.21390606519460        2.12403367777273       -0.11177015931358
C           -1.83458648319628       -0.22275713912991       -0.07747779549341
O           -3.03290413026376       -0.40274844549061       -0.15781685966582
N           -0.95575698961121       -1.31895116555492       -0.00903669478749
C           -1.52826610844138       -2.65081696393801       -0.05398922274652
H            4.23402801985667        0.78638819073339        0.38015585479576
H            3.67485883546268        1.97722926849090       -0.88340398228068
H            2.87220855327964        1.95422453444634        0.68477009560990
H            3.50904449782359       -1.71044104614093        0.36834580469592
H           -1.62789447260931        3.04071039913256       -0.10982487975495
H           -2.80617486290428        2.04886814650531       -1.02362469184163
H           -2.88722233614901        2.10109030893329        0.74471048886358
H           -1.28353254934025       -3.21884185820993        0.84547702236899
H           -1.19677804606457       -3.19883783736727       -0.93917616595775
H           -2.61213014575957       -2.52832580291247       -0.10722053467692
H            1.31609591547398       -2.95736245275874        0.10001006394521
25
 energy: 7.546936928026 xtb: 6.6.1 (8d0f1dd)
C            3.30618249566077        1.22628631142880        0.00779623482418
N            2.34129045906581        0.11636848243201       -0.03936389889608
C            2.60960594456067       -1.26685257546084       -0.00851867379240
N            1.40103827354582       -1.95164727665146        0.09308971612385
C            0.38897838682924       -1.07104941511149        0.03834374043224
C            0.93492262311783        0.21083333156396        0.00438312437291
C            0.11089889419783        1.35606111373073        0.02922814545638
O            0.46768643132706        2.52980738221224        0.09253987279137
N           -1.27657246963942        1.01711012970587       -0.04048718323399
C           -2.21419750499498        2.12411502139881       -0.11172185458981
C           -1.83452058223148       -0.22274529052535       -0.07757919237100
O           -3.03283433187872       -0.40297561388452       -0.15772638356749
N           -0.95568199219011       -1.31898842432142       -0.00914878652468
C           -1.52805495992981       -2.65081064642636       -0.05402526343038
H            4.23446343065445        0.78559111305625        0.37864859342188
H            3.67481210040292        1.97566067481296       -0.88343086617337
H            2.87338342734386        1.95472975114942        0.68475121483855
H            3.50872035308508       -1.70991557628506        0.37033830492568
H           -1.62810960350331        3.04072309776504       -0.10986852457980
H           -2.80662981345475        2.04889460242322       -1.02342298787892
H           -2.88729850798106        2.10108407080099        0.74493115705051
H           -1.28319137026448       -3.21880086634542        0.84541614836813
H           -1.19662760297306       -3.19884201948090       -0.93923455762725
H           -2.61192269099468       -2.52838343188682       -0.10711713731332
H            1.31587327818049       -2.95722534392864        0.09921295351995
25
 energy: 7.641747090083 xtb: 6.6.1 (8d0f1dd)
C            3.30611768148349        1.22638284140004        0.00833640615038
N            2.34110349335170        0.11630561479600       -0.03853168665500
C            2.60999820793875       -1.26717317942723       -0.00916548268243
N            1.40103466147084       -1.95185367982831        0.09342071622919
C            0.38912653032149       -1.07124454073222        0.03796937235604
C            0.93474154374564        0.21061092238535        0.00388925985480
C            0.11077086829663        1.35602325185297        0.02926883473166
O            0.46759555875087        2.52950522854894        0.09296082445208
N           -1.27666523628491        1.01723784039779       -0.04092001125907
C           -2.21428776526437        2.12424434540226       -0.11173022208675
C           -1.83440701809482       -0.22275758907668       -0.07754447568775
O           -3.03273800780210       -0.40319318205804       -0.15737933801415
N           -0.95558320010549       -1.31908091412610       -0.00920025501343
C           -1.52800180988750       -2.65081444348635       -0.05408877892180
H            4.23486374629687        0.78515435574449        0.37698879804812
H            3.67545002260120        1.97655394166253       -0.88401923662466
H            2.87384281275531        1.95488157675309        0.68484040799974
H            3.50765460043323       -1.70930730762168        0.37301592229027
H           -1.62813112013764        3.04076298288247       -0.11007956229042
H           -2.80703725593850        2.04899566569353       -1.02321070120756
H           -2.88709328582892        2.10126686341806        0.74515747877657
H           -1.28309153618250       -3.21881437506452        0.84531941025833
H           -1.19672235915668       -3.19883576240911       -0.93934553275168
H           -2.61189465536778       -2.52840425074395       -0.10705172249127
H            1.31556819054113       -2.95741760419129        0.09813347068595
