  25
        -42.04546111
 C          3.3782480333        1.1878205903       -0.2234770505
 N          2.4309116764        0.1085168371       -0.1114187586
 C          2.7486175885       -1.1801318503       -0.1540158628
 N          1.6513555297       -1.9270808729        0.0099679706
 C          0.5413167687       -1.0812128367        0.1675811002
 C          1.0862672119        0.2314471441        0.0831449949
 C          0.3317499574        1.4926518708        0.1413887193
 O          0.8718024253        2.5935085252        0.0038253561
 N         -0.9628369772        1.2928448533        0.3359609509
 C         -1.9425630817        2.2773521432        0.4260842377
 C         -3.7886899915       -1.1661021606       -0.8334193524
 O         -4.1696846189       -0.1199379518       -0.6677054205
 N         -0.6857500001       -1.3955348965        0.3465594876
 C         -1.2427169525       -2.6834364016        0.4530358166
 H          3.9621282197        1.2700461959        0.6943183375
 H          4.0532458348        1.0089637656       -1.0585355008
 H          2.8338445390        2.1211525088       -0.3744714832
 H          3.7407285191       -1.5641636779       -0.3011044342
 H         -1.5255466957        3.2937473396        0.4069090932
 H         -2.6482431016        2.1650678168       -0.4054043596
 H         -2.5095361890        2.1325673582        1.3527195399
 H         -0.6719184072       -3.3469892383        1.1129316014
 H         -1.3275057888       -3.1529538128       -0.5339020568
 H         -2.2545629831       -2.5749842125        0.8465748928
 H          1.6230935461       -2.9358697242        0.0044091447
