  72
        -99.30179397
 N         -1.4071619638        2.5430306292        2.5799896891
 C         -1.4538046218        1.9816465295        1.4653955519
 C         -2.6594954085        1.9627574557        0.5668214808
 C         -3.2257155336        0.5520346828        0.5057767368
 C         -4.1817026884        0.2295410713       -0.4597050443
 C         -4.7391147979       -1.0358990987       -0.5318142292
 O         -5.6616591002       -1.4309596351       -1.4340555323
 C         -6.1663911341       -0.4970110892       -2.3587591061
 C         -4.3357877654       -2.0324501532        0.3975692320
 O         -4.9323889183       -3.2328717432        0.2552605832
 C         -4.6510185772       -4.2523530552        1.1856519691
 C         -3.3892784155       -1.7047152982        1.3550689630
 C         -2.8411297365       -0.4292010582        1.4061640649
 C         -2.1509677026        2.3958831786       -0.8323962776
 C         -1.3217992092        1.3264001674       -1.5634835430
 C          0.0603139077        1.1797715153       -1.0533077488
 N          0.6863921991        0.0257423722       -0.8495924909
 C          2.1249243306       -0.0195316769       -0.7359989376
 C          2.7617079160       -0.4606869756       -2.0593376983
 C          4.2956485171       -0.5408440644       -1.9246931696
 C          4.9346556134        0.8053072458       -1.8121020600
 C          5.9435196808        1.0517692832       -0.9412410168
 C          6.3952277078        0.0739248323       -0.0280211042
 O          7.4112259534        0.2130936096        0.8171768922
 C          8.2097403720        1.3777437362        0.7866340839
 C          5.7011741062       -1.1903735113        0.0236513679
 O          6.1204782880       -2.0366149872        0.9957210934
 C          5.5049283413       -3.3029125492        1.0058889137
 C          4.7027439649       -1.4601287527       -0.8486471152
 C         -0.0115000319       -1.2376622768       -0.8675564476
 C         -3.7968697835        2.9198169409        1.0335491779
 C         -4.4003892194        2.4700447582        2.3618110108
 C         -3.3500107911        4.3753549835        1.1378727957
 H         -4.5046377660        0.9848216919       -1.1566034072
 H         -6.6540063802        0.3435402195       -1.8558733074
 H         -6.9030737702       -1.0393302890       -2.9481405710
 H         -5.3799929075       -0.1217956143       -3.0220876547
 H         -4.9116700194       -3.9483761792        2.2037206264
 H         -5.2720969758       -5.0958546550        0.8907784663
 H         -3.5978162886       -4.5487193307        1.1507785157
 H         -3.0753369897       -2.4355852357        2.0823703752
 H         -2.1272874341       -0.2035279859        2.1831971109
 H         -3.0091687174        2.6461506683       -1.4548107085
 H         -1.5500287512        3.2996200752       -0.7244144668
 H         -1.8557703618        0.3779593316       -1.5549811303
 H         -1.2387716105        1.6528054581       -2.6089016353
 H         -0.5901370680        1.4687940706        0.9970801087
 H          0.6694493891        2.0706706477       -1.0050267431
 H          2.4122544428       -0.7271697354        0.0472985159
 H          2.5022625929        0.9680122571       -0.4613505569
 H          2.4947582192        0.2454458528       -2.8476534513
 H          2.3843372732       -1.4462009955       -2.3318108146
 H          4.5940975851        1.5729289345       -2.4906986857
 H          6.4104969931        2.0254857617       -0.9345904983
 H          7.6394849062        2.2601291186        1.0908011082
 H          8.6379138439        1.5407011311       -0.2061966129
 H          9.0102136511        1.2017214328        1.5025369835
 H          5.9634354055       -3.8594147852        1.8197902336
 H          4.4272969652       -3.2094676421        1.1750711934
 H          5.6654627941       -3.8222853609        0.0567652172
 H          4.6508626104       -0.9807196040       -2.8728524492
 H         -0.3099016233       -1.5170289425       -1.8805289309
 H         -0.9053636502       -1.1855007221       -0.2417168387
 H          0.6441144121       -2.0111046044       -0.4745352666
 H         -4.5817016180        2.8592931214        0.2705152605
 H         -3.6513759471        2.5165778747        3.1456163579
 H         -4.7822864445        1.4542103324        2.2966510771
 H         -5.2232233098        3.1280467299        2.6284370668
 H         -2.5513756966        4.4730123495        1.8667306647
 H         -3.0139370819        4.7675658740        0.1816317721
 H         -4.1881419499        4.9824435128        1.4697054114
 H         -0.5302069130        2.5136144202        3.0905929105
