25
 energy: 64.097432640780 xtb: 6.6.1 (8d0f1dd)
C            3.72947450132286        0.88289902576983        0.11023715877972
N            2.68559124848574       -0.08388729818433        0.02035122875689
C            2.95298094450530       -1.41564647345677       -0.07450618009131
N            1.78048485686832       -2.09917870021075       -0.07703222749063
C            0.69573400311583       -1.23404536383442        0.01118497896545
C            1.29330958624694        0.10263224868478        0.13265477519479
C            0.68774513384089        1.28680537534585        0.13658973026533
O            0.21304894227310        2.34441652813668        0.37410376255862
N           -2.74103764619176        1.46002424040666       -0.23312600400434
C           -3.18002116966171        2.79471744545880       -0.17268070111780
C           -3.16634056876784        0.37963649920653        0.00760458258654
O           -3.53592216512659       -0.70545328486238        0.17461654240772
N           -0.55994364482462       -1.42824107749230        0.01829776306494
C           -1.10200699861418       -2.74853365635316       -0.03348118065242
H            3.69961187984194        1.46574770497350        1.03153565282796
H            4.64301669560596        0.30230571749349        0.19351731536360
H            3.81118757259213        1.49702669804393       -0.79064751109998
H            3.92833158768635       -1.83362562131361       -0.17261414974791
H           -2.31555471209389        3.44339568066540       -0.05311991486677
H           -3.69637414350699        3.05321554674279       -1.10574330531277
H           -3.87670562322549        2.91724954953053        0.66216373292477
H           -0.51761381268612       -3.40146651294788        0.59997138734007
H           -1.10674267153040       -3.14664531061532       -1.05324361635022
H           -2.11809318828728       -2.71229976352916        0.35086389629464
H            1.73093832997656       -3.09476023328973       -0.17992618736406
