25
 energy: 69.900137904809 xtb: 6.6.1 (8d0f1dd)
C            3.68651729103351        0.88606154678859        0.13657254689499
N            2.61055994271726       -0.04329672026503        0.05744602357968
C            2.85961263036078       -1.37420827592617       -0.10592518193657
N            1.69037553879788       -2.05957920277934       -0.07591926242198
C            0.61870269337428       -1.17476475363622       -0.00611984489077
C            1.22197019983820        0.15049720617649        0.13237487378926
C            0.57515369868571        1.31891149893763        0.06548810301932
O            0.30142954611480        2.40933566556208        0.44261138465536
N           -2.47474957266707        1.38350050406149       -0.23017664695072
C           -3.08835423784589        2.65401587753772       -0.18252733344829
C           -2.94300355496754        0.31562787711012        0.01628647669502
O           -3.49205189093754       -0.68727524671055        0.17109183013784
N           -0.64184440997838       -1.37356015756376        0.00400965049119
C           -1.12460568757870       -2.70993073066447       -0.02330924867934
H            3.68431383513510        1.52230189768821        1.02062119762915
H            4.56980299848658        0.28841076379078        0.14486097925377
H            3.79050360910486        1.53059615533660       -0.71692665067418
H            3.82173552127010       -1.81800601669772       -0.20085161737351
H           -2.29171607402386        3.39207567945519       -0.03674865937673
H           -3.59309764168469        2.85394153647596       -1.12571620220408
H           -3.81417040535092        2.69795571271143        0.63529592235372
H           -0.46700727367975       -3.29873648515065        0.59835413888118
H           -1.11929790575073       -3.11814341082474       -1.03728330381069
H           -2.13374580165066       -2.78016723838559        0.37865966996145
H            1.62597152821846       -3.05419077019345       -0.19467930056600
