25
 energy: 7.056451662557 xtb: 6.6.1 (8d0f1dd)
C            3.38433798388625        1.10821355300191        0.10475314174950
N            2.34881406279886        0.11376017990788       -0.00563692058795
C            2.60481465151788       -1.26307924034123       -0.00069655504737
N            1.39424832060343       -1.90876198305420       -0.06313660766128
C            0.39088722018915       -0.99964625039578       -0.03193104363699
C            0.91642570833713        0.28798053798823        0.02198337454106
C           -0.00876782977393        1.38581996791313        0.06457204906253
O            0.27109467433952        2.57808400150186        0.13429259381207
N           -1.50706722263442        1.07446732197947       -0.04289322980408
C           -2.42193005907073        2.23865533385517       -0.09628913762266
C           -2.00254977052242       -0.18814892140074       -0.00107939680012
O           -3.15760677004874       -0.51686074651381        0.01226507295653
N           -0.96481898691490       -1.22795541998077        0.01277091663977
C           -1.38031801041611       -2.62534693990454       -0.04442101952401
H            3.75391219643411        1.25177153059201        1.14400107955532
H            4.25283723797898        0.81338621672294       -0.50837870025911
H            3.02157233742688        2.05972919829104       -0.27540458855929
H            3.56583638817701       -1.74307866361797       -0.03874152504677
H           -1.81854171615278        3.14681129810518       -0.05188972623731
H           -3.01007014135545        2.29075208326853       -1.01383752649753
H           -3.11292624423455        2.25945846006389        0.74629299529168
H           -0.96001835207507       -3.20747528225610        0.78322460747245
H           -1.08579704302012       -3.09907091586661       -0.99036412301950
H           -2.46363502902662       -2.64199572575829        0.04896597845143
H            1.31964216814412       -2.91520548155803       -0.10483658513952
