25
 energy: 59.979839617377 xtb: 6.6.1 (8d0f1dd)
C            3.77871259362383        0.88153860557862        0.10920704643154
N            2.78105650292679       -0.13852356826426       -0.00391247258833
C            3.04588820025598       -1.46679951643032       -0.05174197492439
N            1.86711000799433       -2.15158021331423       -0.08930174582007
C            0.78066809691462       -1.28647472811741        0.03744588181845
C            1.38969088031359        0.05004176755977        0.13041911906547
C            0.76439357192080        1.21045810890653        0.18146817053217
O            0.11388378921038        2.19022343770528        0.31977774543846
N           -3.02504061369590        1.52879768260547       -0.25656845316401
C           -3.29884359109469        2.91336626112742       -0.18058172323823
C           -3.38942516168348        0.43317669874538        0.00785770455873
O           -3.65084259732453       -0.68643857453578        0.16319478440813
N           -0.47037232410107       -1.49243442355154        0.04409274869979
C           -1.05638949662599       -2.80074602081770       -0.03774478193647
H            3.76840915204446        1.35634464105729        1.09012655882350
H            4.75551292641705        0.42038538852822       -0.02365571959487
H            3.60566735007008        1.63206890647949       -0.66211783573890
H            4.02090436571932       -1.89281333133043       -0.12724525068664
H           -2.36433126836425        3.43928987433621       -0.08313106243757
H           -3.78438448377370        3.25818575427029       -1.09588453235863
H           -3.92823796006036        3.14717398646566        0.67800564320694
H           -0.54401649428697       -3.50596230666207        0.62515939576516
H           -1.03409780354884       -3.19324557459851       -1.05947952480285
H           -2.10572974594323       -2.68750136242000        0.24183723593824
H            1.79994736139123       -3.15402509805861       -0.12995084812024
