25
 energy: 67.833228100354 xtb: 6.6.1 (8d0f1dd)
C            3.70981744835410        0.87411215178567        0.13876849579881
N            2.63334629221883       -0.05535525323533        0.04914339917721
C            2.89030782685035       -1.38720707761782       -0.09437052275197
N            1.71990947674945       -2.07043346074109       -0.07444961022568
C            0.64312423731724       -1.19194747078621       -0.00322664330647
C            1.24505530537128        0.14009783460421        0.13248543726501
C            0.61214308311894        1.31968714487630        0.08183008019912
O            0.25069934465643        2.39028251765483        0.45199182817685
N           -2.56275875684020        1.40769324911293       -0.22165155717546
C           -3.12665332078346        2.69643266289780       -0.17959165833495
C           -3.01230530902601        0.33229788412026        0.01356956393426
O           -3.48221446678439       -0.70957691630553        0.18008321210728
N           -0.61556280947276       -1.38872991176601        0.00278007143902
C           -1.11759598776435       -2.72027141948194       -0.02748901921228
H            3.68384810925993        1.51470986746809        1.01995250514734
H            4.57992387691975        0.27046288883751        0.23069303692441
H            3.84509283427758        1.48137081012896       -0.74259030616072
H            3.85805335411539       -1.81769887401129       -0.20260211188628
H           -2.32498817583061        3.41902902947386       -0.03638850040406
H           -3.63590622978113        2.91311956416378       -1.11958823692446
H           -3.83736852661362        2.76404408826405        0.64385575431372
H           -0.49286030956381       -3.33353033520740        0.59772459028257
H           -1.12646815727131       -3.12904408396879       -1.03996160919382
H           -2.12050302768042       -2.75474757432929        0.37946430712114
H            1.66480845093031       -3.06556639303591       -0.19362413273238
