25
 energy: 44.723748138572 xtb: 6.6.1 (8d0f1dd)
C            3.49158662512586        1.04813766050421        0.10760779139211
N            2.42233762138384        0.09682071498964       -0.00273795192973
C            2.65871019247117       -1.25786571241488       -0.04401158903456
N            1.45858771393802       -1.91229525033497       -0.10310173569910
C            0.44009460633391       -1.01080840388986       -0.02483488185692
C            0.98469775414064        0.28979586940208        0.05071133525032
C            0.09876216475755        1.38158566637063        0.11894244937549
O            0.16906806652704        2.57026238091249        0.28398880738361
N           -1.72439276789925        1.10644870140538       -0.10928429147827
C           -2.57036908986793        2.32394993427114       -0.13840007711619
C           -2.17087397057051       -0.10886785693432        0.00564924852576
O           -3.21521022123562       -0.66244551985809        0.08408245805651
N           -0.89675517691989       -1.21990113678182        0.01338358567378
C           -1.30112707782855       -2.62002632963289       -0.03939182735590
H            3.74724426753848        1.29030517153598        1.14505106265759
H            4.40256861686025        0.62844117019811       -0.35730321797939
H            3.26381070377290        1.97229331622459       -0.40595507211780
H            3.59262943160131       -1.76312527665695       -0.14970685715085
H           -1.92577739114622        3.19104117403846       -0.05301151529006
H           -3.11914691801455        2.46746402805351       -1.06873408525941
H           -3.27670419972287        2.41336772096283        0.68610627891981
H           -0.80644374909235       -3.21564701484569        0.74137370573243
H           -1.05709902289050       -3.05365167921928       -1.02062958041520
H           -2.37647134270951       -2.69267621383941        0.13459941821386
H            1.41119941850780       -2.91775009680984       -0.13527633429482
