25
 energy: 50.969962215146 xtb: 6.6.1 (8d0f1dd)
C            3.27670543436161        1.40482481211822        0.04873633537479
N            2.47160950347793        0.20483806159527        0.08006423547766
C            2.84107763509871       -1.07969026670042        0.20847316833947
N            1.74860410394910       -1.89988686500746        0.17881630707662
C            0.61379131547395       -1.13951696605436        0.02338368821108
C            1.10637960941190        0.18718998275149       -0.04258805885241
C            0.23901801333964        1.31133160809729       -0.08027309529790
O            0.58136561448452        2.49067382195084       -0.12629176439058
N           -1.07553008268053        0.91293159909248       -0.03955458867459
C           -2.07832821568530        1.97113154606171       -0.04561422230985
C           -1.54709587597911       -0.39925835997485        0.13141551251581
O           -2.73621053233877       -0.44272438811728        0.38196883255344
N           -0.68476426419635       -1.48786853216637        0.04392462197162
C           -2.50466472555457       -2.90136889227678       -0.29542310466766
H            3.99004734390286        1.38830615462421        0.86324779646106
H            3.83622692494887        1.49401015108583       -0.88172869364080
H            2.61900058228149        2.27013745154244        0.18227851814254
H            3.84917973148876       -1.42234511798262        0.26765386747881
H           -1.51121812065531        2.90086397398402       -0.11920264376104
H           -2.74996801327624        1.83523250817076       -0.89534245805441
H           -2.66877078272680        1.94531232846550        0.87028944838705
H           -2.21357136191776       -3.51592470605640        0.51398174904732
H           -2.28112391173558       -3.19384182923138       -1.28109038290121
H           -3.20462423719856       -2.13390646838485       -0.12886863521459
H            1.77785052534793       -2.90744998885803        0.24718613573352
