25
 energy: -6.055298443170 xtb: 6.6.1 (8d0f1dd)
C            3.24967585404324        1.19431446015946        0.08752420155638
N            2.32054400951623        0.10942770990076        0.03433642478534
C            2.62401376025989       -1.23803804067978        0.03593656074685
N            1.44286489775897       -1.93714201182289        0.01811489960651
C            0.41456529043104       -1.06972749670274       -0.00159409084735
C            0.93149228200074        0.22468077863743        0.01402170442234
C            0.12222451183283        1.38028809142327       -0.00754910739700
O            0.48831656064250        2.56102034557491       -0.00935567781512
N           -1.26393259074730        1.03192302517740       -0.03078932430266
C           -2.21650840599845        2.12962626015169       -0.04848959899441
C           -1.80356440777380       -0.21706395395420       -0.04168430623588
O           -3.00338769483320       -0.41251420434074       -0.06161852534181
N           -0.92801236312829       -1.32321092107322       -0.03106945750301
C           -1.53467867837058       -2.63832786932275       -0.07159033279137
H            3.74040192879275        1.24158494164694        1.06534701917405
H            4.01660718094574        1.08125307872198       -0.68394356060148
H            2.69803326159047        2.12316135413987       -0.07062308518695
H            3.59975062578194       -1.66119590855293        0.05085864873362
H           -1.65477757952740        3.06330604157018       -0.02612710773155
H           -2.82368404795954        2.07098670017734       -0.95145804832219
H           -2.86803701409699        2.05583991870457        0.82119041380143
H           -1.26592502539678       -3.21996685066502        0.81406270451183
H           -1.24628946725598       -3.18315483069024       -0.97326993604588
H           -2.61089677358812       -2.49083854914912       -0.07988683542364
H            1.38526932917087       -2.94018970502232        0.01279835543302
