25
 energy: 45.183089798823 xtb: 6.6.1 (8d0f1dd)
C            3.41334299287837        1.49999187328522        0.04941270430017
N            2.58548908391149        0.32305404040538        0.11564179831746
C            2.99641698070737       -0.94162358169144        0.21649969435255
N            1.94317151339365       -1.79413171285643        0.16857004831357
C            0.79638334955934       -1.05563525880048        0.03321081440893
C            1.22678792413126        0.28618212631596       -0.00571700979139
C            0.27451336687922        1.37291485748116       -0.04851062748387
O            0.58369703964126        2.55369387542641        0.00145956019119
N           -1.00462218631118        0.90004071628890       -0.11636742158372
C           -2.08869401902724        1.88209304575139       -0.10265326856201
C           -1.38388700040051       -0.47557322860390        0.09688075183881
O           -2.55814941660813       -0.62771095211020        0.32643514986075
N           -0.45531057318988       -1.46887718928204        0.04297297351350
C           -3.09578802196192       -3.09857442080235       -0.31246480153985
H            4.18313218455157        1.47389124526004        0.81115252003528
H            3.85714900787843        1.56930047700949       -0.93417066625625
H            2.81082340417285        2.39321437554979        0.18916498681915
H            4.01187081456100       -1.24266614969079        0.30992444708511
H           -1.61131229332560        2.86009881685383       -0.18039669133970
H           -2.76188388727546        1.69353455390331       -0.93611880660281
H           -2.67823197435323        1.82136856601508        0.81652624567011
H           -2.80553755928284       -3.70752592890037        0.48585883477535
H           -2.89915300151817       -3.41232933718235       -1.29740925593784
H           -3.65003367741277       -2.22361843653788       -0.13947581712260
H            2.00650840428544       -2.80043983995705        0.27291596625837
