25
 energy: 49.118965094889 xtb: 6.6.1 (8d0f1dd)
C            3.31288798733904        1.43024049379597        0.04716055632584
N            2.50426623757118        0.23776927839690        0.10200873584110
C            2.88969049784221       -1.03817026069796        0.22631342953445
N            1.81327734773679       -1.87076071765540        0.17367478797108
C            0.67323815504062       -1.11770302895368        0.02399181711425
C            1.14627952775815        0.21405756533111       -0.03804944641546
C            0.24170062161532        1.32224932324584       -0.07879806215401
O            0.57749936776188        2.50066731026192       -0.08020629903004
N           -1.05691546937298        0.90156487691184       -0.07898217568839
C           -2.07482507282855        1.94014028290241       -0.05354205572458
C           -1.48886373985414       -0.43159650579443        0.14042415100829
O           -2.66170032410853       -0.49787801250979        0.43525629462470
N           -0.60548654432439       -1.49008362632757        0.04568082675682
C           -2.71367024344478       -2.96640097180961       -0.30996807690694
H            4.06111660509284        1.40928173851492        0.82271710473031
H            3.78683994016489        1.51154944657790       -0.92193200472389
H            2.67898382492232        2.30613243511198        0.19513086307187
H            3.89846274801178       -1.37277198970981        0.31843601779095
H           -1.54713123286974        2.89334511119867       -0.13883935981267
H           -2.75289717831534        1.78603787724951       -0.89156548573733
H           -2.65065519765464        1.90244600407566        0.87203923514113
H           -2.40943754794675       -3.57137721197598        0.49674294921758
H           -2.48701890156170       -3.25242635309158       -1.29540990999297
H           -3.35950872275853       -2.15929956069227       -0.13619997039274
H            1.85552882889256       -2.87949722330262        0.28035270897239
