25
 energy: -4.397284309000 xtb: 6.6.1 (8d0f1dd)
C            3.25612339576039        1.21758510241869        0.08633740359869
N            2.33848639618961        0.11742093765258        0.03398379188658
C            2.65290275684800       -1.23278630602546        0.04459535392718
N            1.47502999494117       -1.93888482640981        0.03626820590275
C            0.43383352405304       -1.08857022451142        0.00796413726606
C            0.94593517828946        0.21345175739755        0.01635112107814
C            0.13017310581010        1.36469399395140       -0.00999056949600
O            0.47602322966651        2.55140148952754       -0.02032011714941
N           -1.25481731583032        1.00931638626326       -0.02895086263575
C           -2.20810661883452        2.10762678290190       -0.04805434815027
C           -1.78225331833715       -0.24108688394729       -0.03198880803800
O           -2.98146120046456       -0.43984040430533       -0.03997578581915
N           -0.91317068337585       -1.35430391289035       -0.02444339432768
C           -1.59558470424554       -2.64144110717413       -0.08705523298465
H            3.76629026990907        1.26355737696451        1.05500221849498
H            4.01392287043115        1.12795227765722       -0.69883704589411
H            2.68976893061236        2.14438281626590       -0.04523183542388
H            3.63163928796693       -1.65430909670083        0.06868751427191
H           -1.64352956024816        3.04105545219115       -0.02936079670216
H           -2.81789796879605        2.04534136189820       -0.94868359528883
H           -2.85265203928775        2.03791088294444        0.82585147745145
H           -1.36297118400818       -3.25089170199984        0.79082168745171
H           -1.34807880970086       -3.18981427780004       -0.99679655980433
H           -2.65697267672229       -2.42441782309765       -0.08589075755416
H            1.42344186859031       -2.94178643750287        0.03982949389166
