25
 energy: 46.318857637393 xtb: 6.6.1 (8d0f1dd)
C            3.38805882502325        1.48144059691669        0.04742779797302
N            2.56455714092845        0.30213293974206        0.11459578416856
C            2.97021397515449       -0.96525901087657        0.22013623980625
N            1.91259722614581       -1.81427287654411        0.16827807216170
C            0.76854777766123       -1.07402840930741        0.02778896713687
C            1.20756086913892        0.26677152303799       -0.01909089321006
C            0.26407680865079        1.35771466999397       -0.05686708124131
O            0.58113676218400        2.53668654840976       -0.01176608748615
N           -1.01961391988764        0.89798972216396       -0.11542024275950
C           -2.08667889780971        1.89662090544606       -0.09078304617690
C           -1.40573437604382       -0.46730364234547        0.11564084494892
O           -2.57667413339417       -0.59703760192541        0.37530396200362
N           -0.49009292893483       -1.47674701603629        0.04349316685166
C           -3.00315382615794       -3.06181268356065       -0.31401251658947
H            4.16033010674394        1.44695608082366        0.80558731172271
H            3.81192028157377        1.56632220009399       -0.94449831919096
H            2.77921165133941        2.36989196995341        0.19910067834167
H            3.98393404131624       -1.27456378765388        0.31290068446329
H           -1.58949251868255        2.86586192121883       -0.17129983290430
H           -2.76407156562919        1.71678189302895       -0.92217638066184
H           -2.67160097294511        1.84240009823839        0.83098279779456
H           -2.70617309933052       -3.67064254584357        0.48370827051245
H           -2.79754252311018       -3.36780922830967       -1.29917582145571
H           -3.57977622290805       -2.20342500368816       -0.13878312829104
H            1.96965715145067       -2.82146361756266        0.27801731215894
