25
 energy: -1.659248072473 xtb: 6.6.1 (8d0f1dd)
C            3.25846765741359        1.24151822560227        0.08429164857117
N            2.35451579594205        0.12491663726564        0.03428571074375
C            2.67943214757522       -1.22522899277547        0.05684309795105
N            1.50560916999349       -1.94065785866745        0.05480617832049
C            0.44879717673998       -1.10966506618186        0.01645677800797
C            0.95782402142991        0.19922220950435        0.01678766565597
C            0.14030351858959        1.34897513877460       -0.01264717539537
O            0.46939215532163        2.53980702558892       -0.03114050367777
N           -1.24061151318547        0.98950991139409       -0.02657076702724
C           -2.19448108313097        2.08861111662836       -0.04828819680693
C           -1.76253881532069       -0.25958993907317       -0.01905937991157
O           -2.96593270424135       -0.42857829529072       -0.00512611562722
N           -0.90658965856516       -1.38746175175361       -0.01983309654955
C           -1.65994508634104       -2.64975859930946       -0.10481266011338
H            3.79164318995246        1.28420430092317        1.04142563026756
H            4.00429262452403        1.17582636749143       -0.71607949540063
H            2.67642545681011        2.16461785123195       -0.01753788493507
H            3.66266123811621       -1.64001347948361        0.08679878573505
H           -1.62442643817592        3.01872838364140       -0.03610997076004
H           -2.80745941140733        2.02209669881271       -0.94609744916290
H           -2.83182871086403        2.03105836828790        0.83062130975163
H           -1.46038884165917       -3.28543153144466        0.76434577425230
H           -1.45038591633167       -3.19746920471857       -1.02214940124013
H           -2.70250187510260       -2.36312941573490       -0.09134728549179
H            1.46296778001713       -2.94359266430362        0.06668250002305
