25
 energy: 13.464171770281 xtb: 6.6.1 (8d0f1dd)
C            3.25556973379864        1.30811886323775        0.07627595777104
N            2.39646982233239        0.14256787902447        0.04505475877521
C            2.74452461231998       -1.19758635939378        0.11446224006778
N            1.58951896353057       -1.94538172259190        0.10832191112620
C            0.48404069499780       -1.17698933050443        0.02076247819905
C            0.98996422968957        0.15545179590010       -0.01171250620940
C            0.18256465439691        1.30677678296149       -0.03608217738289
O            0.49615490895594        2.50116206023100       -0.07854133621596
N           -1.18736217162970        0.94277887145032       -0.02055346741671
C           -2.14536434962836        2.04148646712547       -0.04283426694763
C           -1.70381360689906       -0.30576167016928        0.02740279735574
O           -2.91338120742266       -0.39419769842329        0.12586985647631
N           -0.90289561965814       -1.48361518406823       -0.03142239254159
C           -1.86056603931349       -2.67009484454941       -0.17578622718512
H            3.86331277121390        1.34257541607988        0.99106562011134
H            3.95850634802760        1.31069057871544       -0.76943386811423
H            2.62694284909491        2.21083667018971        0.06518478601898
H            3.74088136344563       -1.58081618836368        0.15596770953015
H           -1.56595780047796        2.96379299626623       -0.05875625327814
H           -2.77498975597598        1.95761461761301       -0.92504717249642
H           -2.75925170421704        2.02480246812023        0.85233984890091
H           -1.73693730213195       -3.37285570407198        0.66208525995193
H           -1.75179354448496       -3.20342147427212       -1.11374787425019
H           -2.84966604139807       -2.23597590152185       -0.11938997723371
H            1.58190267646936       -2.94855171734212        0.14551016289340
