25
 energy: 38.967156158215 xtb: 6.6.1 (8d0f1dd)
C            3.49506302943273        1.62579512007485        0.04496893669282
N            2.69543846840082        0.42962721423257        0.08291054179002
C            3.13584606931258       -0.81966348641994        0.15537622543828
N            2.09434725962444       -1.67880261899827        0.16582167034886
C            0.93001271059742       -0.93879729605324        0.09625238050076
C            1.33069123930483        0.40337769206913        0.05060990627600
C            0.34747735092988        1.46436793020789       -0.00227789471836
O            0.60679541946571        2.66137020135988       -0.02697338078023
N           -0.91707542808387        0.93822791118766       -0.01885489918514
C           -2.04460444057858        1.85222694410325       -0.06550456396386
C           -1.27418990973729       -0.46338865281847        0.03831419765569
O           -2.45347075068657       -0.72008246283488        0.04974770599199
N           -0.29239928890659       -1.39342645333052        0.08466114195175
C           -3.56872817393349       -3.42292696253987       -0.27614637129475
H            4.14755266692370        1.66416854589942        0.91669341622509
H            4.10273369326000        1.63613696480797       -0.86155374855120
H            2.82194606271031        2.48818746345930        0.04374701865275
H            4.16496180312623       -1.10568009429647        0.20249276170899
H           -1.65578488603702        2.86528913466893       -0.11247946896464
H           -2.66308049659357        1.64124122592957       -0.93889166843698
H           -2.66426754957480        1.72387961493108        0.82295625127473
H           -3.30628014257997       -3.98873760532441        0.59219186932828
H           -3.38835696492936       -3.82587393506969       -1.24874436495204
H           -3.98271793530911       -2.44364240453946       -0.16899274975153
H            2.13896889951310       -2.68693608710806        0.21676479169553
