25
 energy: 38.602517548832 xtb: 6.6.1 (8d0f1dd)
C            3.51798590359516        1.63665862553730        0.04716123122533
N            2.71181194169438        0.44330806761752        0.08470579319165
C            3.14856088484930       -0.80734960058480        0.14407964801862
N            2.10088770023902       -1.65964918035923        0.15789013718317
C            0.93489200912761       -0.92168647207586        0.10376522622247
C            1.34321587392301        0.41868722615159        0.05857566211879
C            0.35224727537446        1.46509492957840        0.00230026660758
O            0.59446593866036        2.66458381189711       -0.03567125651298
N           -0.91878913791741        0.94025958042921       -0.00264415692698
C           -2.03808347683832        1.86330520644638       -0.05617028079453
C           -1.27482559588324       -0.44693972818496        0.03382439601478
O           -2.45062471272677       -0.72402937036307        0.01107418114705
N           -0.28700951883046       -1.37395469887688        0.09317630572042
C           -3.61753164366233       -3.47093838688638       -0.27387471991269
H            4.16182547672210        1.68937856255057        0.92568186064336
H            4.14075587580557        1.64745483063182       -0.84831240702852
H            2.84858943530687        2.49763519273680        0.03238508923350
H            4.17836796353067       -1.10163032207430        0.17567158039853
H           -1.63898442566771        2.87398992208378       -0.10420071012534
H           -2.64989381386603        1.65153470740655       -0.93347213423369
H           -2.66163731264330        1.74219589920637        0.83030549259608
H           -3.34295765017872       -4.03049930645415        0.59428137549414
H           -3.45007688889148       -3.88506355432996       -1.24471774191783
H           -3.93653996909056       -2.45814276092109       -0.17233469633148
H            2.14556217234108       -2.66517439241627        0.20355377016303
