25
 energy: 29.065095735653 xtb: 6.6.1 (8d0f1dd)
C            3.24684225486723        1.35199587468461        0.06574713961132
N            2.41702175047518        0.16770067810527        0.06058642838586
C            2.77650509004807       -1.16109428086344        0.15761123320147
N            1.64294847905751       -1.93623027307666        0.14207828072723
C            0.51791105084501       -1.19714806419020        0.00682496837450
C            1.01409242268447        0.15140603096310       -0.03672498576883
C            0.21380359251575        1.30129596490251       -0.05250558040776
O            0.52865284825559        2.49589301635738       -0.10780168552859
N           -1.14892027366920        0.92085070947348       -0.01782690906686
C           -2.11184555259002        2.01577607758122       -0.03938037405416
C           -1.66157076818876       -0.33007240107413        0.07355899444881
O           -2.87011791467162       -0.39186811636526        0.23779409770776
N           -0.89059698028274       -1.52902497628472       -0.01309977563371
C           -1.99885236265431       -2.68738442939944       -0.21427208509930
H            3.90986669712956        1.37435230631112        0.94227196312102
H            3.91400482175076        1.39617436444538       -0.81069881384753
H            2.59184852620628        2.23405800379266        0.12373010645567
H            3.78000709398924       -1.52189291987354        0.19944998817791
H           -1.52846829808687        2.93371432890972       -0.07529513154222
H           -2.75773439085165        1.91123828780105       -0.90938850703195
H           -2.71323358881544        2.00896548223761        0.86488202217291
H           -1.92035784837230       -3.42890843852028        0.58897008831934
H           -1.95202172930270       -3.18294390996300       -1.17780139378835
H           -2.92382586446705       -2.12541385511323       -0.11938439057552
H            1.66375493812143       -2.94053549921910        0.18737619822854
