25
 energy: 44.078367480347 xtb: 6.6.1 (8d0f1dd)
C            3.43491193924316        1.51845986531752        0.04852185160731
N            2.60478218785715        0.33750553990840        0.10370903383691
C            3.02210713845511       -0.92162710833239        0.20934536278028
N            1.97175159834028       -1.77548269504030        0.16878385607359
C            0.82187607384847       -1.03640845266004        0.04020913070607
C            1.24430082684073        0.30487215412856        0.00505967280052
C            0.28487748007294        1.38805772614427       -0.04228787119225
O            0.58701040926109        2.57119918803171       -0.00314262549814
N           -0.99145270815582        0.90368864644084       -0.10367822645556
C           -2.08945396994949        1.86794447159113       -0.11076360555490
C           -1.36359311061209       -0.48252276925303        0.08062650598493
O           -2.54000765865961       -0.65796788933669        0.28016591111998
N           -0.42241547978437       -1.46004212392633        0.04454284139535
C           -3.18515293428510       -3.13928294679797       -0.31119162007808
H            4.19585397247388        1.50591762496013        0.82005170981525
H            3.90283519235349        1.57704880247061       -0.92494964457416
H            2.83824893486977        2.41703755660405        0.17396103845288
H            4.03987218832642       -1.21244850702370        0.30435621640616
H           -1.63379314624108        2.85518695776895       -0.18942170198828
H           -2.75772458486554        1.66845820685325       -0.94669815391803
H           -2.68410126985330        1.80124231928528        0.80451705861205
H           -2.90959675376347       -3.74527855018558        0.49232272800337
H           -2.99616880632924       -3.46272365165836       -1.29366720580692
H           -3.71686537559008       -2.24957559711564       -0.14425149130588
H            2.04239192065730       -2.78058870620506        0.26904402729540
