25
 energy: 48.275779712420 xtb: 6.6.1 (8d0f1dd)
C            3.33464057767627        1.44711987519172        0.04478647194620
N            2.52280615937361        0.25824995841640        0.10865605076457
C            2.91567032412859       -1.01438221539911        0.22536789009048
N            1.84633809205040       -1.85387158231423        0.17104871546804
C            0.70481892581524       -1.10432669660821        0.02396224245841
C            1.16635308092371        0.23068885205598       -0.03414375066592
C            0.24663956144633        1.33267352286435       -0.07241219274750
O            0.57673024183450        2.51089855631622       -0.05557327102033
N           -1.04633950370860        0.89917447110975       -0.09581470799340
C           -2.07892378371730        1.92662900780026       -0.06465582248345
C           -1.45880565672495       -0.44435294048807        0.13634085885984
O           -2.62599953894702       -0.53031611031752        0.43766707696213
N           -0.56607239128797       -1.48674522396484        0.04467744820913
C           -2.81258737406078       -2.99653640345111       -0.31423137824476
H            4.09640873070671        1.42104983831666        0.80830095636951
H            3.76737528474015        1.53889426533854       -0.94291421564790
H            2.71054615415799        2.32668899482016        0.20100530495343
H            3.92624082466842       -1.34000447748712        0.32032284894064
H           -1.55634710180945        2.88394115772090       -0.15389080186368
H           -2.75845249812522        1.76106201467054       -0.89617465763990
H           -2.65642912283405        1.88240561592492        0.86043155238703
H           -2.50737931541712       -3.60184724903014        0.48913082318818
H           -2.59060761008156       -3.28719455725721       -1.29939930684020
H           -3.43236146415206       -2.17083221634336       -0.13740944538001
H            1.89373552579560       -2.86297846225052        0.28922733411997
