25
 energy: 41.546516970391 xtb: 6.6.1 (8d0f1dd)
C            3.45617954690889        1.55976393148707        0.05172885589848
N            2.63896321359140        0.37560307376275        0.08685547581799
C            3.06954440653802       -0.87497453961938        0.18959796363886
N            2.02861708319383       -1.73575358889324        0.17500341176794
C            0.86980666970278       -0.99719751445355        0.06423886405571
C            1.27640938674917        0.34464928158819        0.02572767802394
C            0.30781044794435        1.41850430502099       -0.03025004544344
O            0.59112469517895        2.60820527924408       -0.02468070939207
N           -0.96241057103915        0.91044088482104       -0.06390194184090
C           -2.08132623104859        1.84412948808655       -0.10175769185105
C           -1.31446437238815       -0.49494797496161        0.06050041524647
O           -2.49281625083712       -0.71441095068330        0.19157843569042
N           -0.35629914480086       -1.44633032653367        0.05495208203914
C           -3.35042866932325       -3.23908865061178       -0.29854815914192
H            4.18340610775255        1.56190989241246        0.86062905322193
H            3.98874250755708        1.60516188089292       -0.89264415133036
H            2.84583400050590        2.45321045121715        0.13204393514365
H            4.09405759954338       -1.15052721964986        0.28570728122280
H           -1.67606968136989        2.84953841759515       -0.17654269901890
H           -2.73011345662695        1.62628504386111       -0.95150570011589
H           -2.68990729702155        1.75218924205442        0.79729018290934
H           -3.06596156549321       -3.83366397482444        0.53067575708109
H           -3.15041508368255       -3.60949002390714       -1.27722457171926
H           -3.84606997502547       -2.31107411809081       -0.15951393405915
H            2.11698037070743       -2.73864621502079        0.26773104652442
