25
 energy: 20.606387346203 xtb: 6.6.1 (8d0f1dd)
C            3.25137088726647        1.32961187502173        0.07208956462989
N            2.40625654040717        0.15521682369068        0.05112878419032
C            2.75736270751458       -1.17809133469692        0.13569121556762
N            1.61525795175086       -1.94121121945322        0.12316203057084
C            0.49851122454591       -1.18955831972166        0.01168692369157
C            1.00006134793416        0.15117732003826       -0.02754080300976
C            0.19807615281382        1.30319730151529       -0.04597911389689
O            0.51248277250296        2.49734007808294       -0.09613519839432
N           -1.16793720874507        0.93314277565035       -0.01956683361522
C           -2.12841600236047        2.02939579593891       -0.04130718192937
C           -1.68274258113271       -0.31686075911961        0.04626513529448
O           -2.89231003114056       -0.38962381598400        0.18161623410927
N           -0.90164010489012       -1.50909684380473       -0.03261328123701
C           -1.93044864555266       -2.67554473452322       -0.19753738706921
H            3.88794569799798        1.36133136686995        0.96885498323121
H            3.93750132471073        1.35435110624987       -0.78903226072957
H            2.60846979182306        2.22114217379441        0.09646854223329
H            3.75739604097605       -1.54893155832245        0.17627482365425
H           -1.54684890298579        2.94936369641508       -0.06806764303125
H           -2.76637617431304        1.93567497631675       -0.91675778421332
H           -2.73512459860458        2.02269824893284        0.85887244324626
H           -1.82807028593848       -3.39706723534149        0.62290648313917
H           -1.85266636543015       -3.19351731780962       -1.14634538706588
H           -2.88968922621571       -2.17719342497896       -0.12304515014180
H            1.62269036506291       -2.94493833576890        0.16632886142365
