25
 energy: 39.810168932259 xtb: 6.6.1 (8d0f1dd)
C            3.47815242767507        1.60542015353949        0.04678116749520
N            2.67458121369139        0.41289586031969        0.08243660198372
C            3.11364094248433       -0.83485191767189        0.16737088826517
N            2.07820151146069       -1.70129931639014        0.17145149022790
C            0.91657484628376       -0.96233093710266        0.08699984037293
C            1.31148918419024        0.38310685739287        0.04238849344329
C            0.33077933770309        1.44969999306069       -0.00918705560733
O            0.59183903533550        2.64592432513123       -0.02221928747127
N           -0.93067472501305        0.92320396877253       -0.03715159928503
C           -2.05802874889215        1.84145906987086       -0.07802085419140
C           -1.27778121113276       -0.48785691137607        0.04862491981479
O           -2.45554727843448       -0.73773417485785        0.10305702628234
N           -0.30260438864375       -1.42481728741688        0.07841189432819
C           -3.50954411223082       -3.34427334041255       -0.27937745733528
H            4.15614882161406        1.62583229383919        0.90043375687601
H            4.05920784163017        1.62229994369490       -0.87632340964591
H            2.81532108942233        2.47194876916047        0.07959790379732
H            4.14122128987462       -1.11942646950946        0.23099241181907
H           -1.66742866126152        2.85520895409066       -0.13116324617788
H           -2.68513415459960        1.63205535721480       -0.94589332301534
H           -2.67466464657276        1.72859824610033        0.81259187095492
H           -3.24582437202214       -3.92061738056035        0.57381391045200
H           -3.31826195834568       -3.74426050875182       -1.24608620295748
H           -3.98620628376765       -2.39715621071544       -0.16629978755663
H            2.13374371541669       -2.70909306085220        0.23810852610075
