25
 energy: 7.496037867876 xtb: 6.6.1 (8d0f1dd)
C            3.25776281401336        1.28731447025988        0.08021946720409
N            2.38391043197679        0.13778508913526        0.03731457618884
C            2.72638603834625       -1.20868603962268        0.09215496466047
N            1.56262196116543       -1.94490971982390        0.09081356909879
C            0.47183725339003       -1.15646932306540        0.02049003326843
C            0.97942131767672        0.16743498338240        0.00239888600482
C            0.16550684020173        1.31707653705973       -0.02948283235405
O            0.47466965565574        2.51196845760775       -0.06827112013805
N           -1.20811922771422        0.95259958450522       -0.02272049818745
C           -2.16343584597609        2.05402520127041       -0.04425547755681
C           -1.72331062051666       -0.29423462490754        0.01052138354297
O           -2.93174426696366       -0.41011320077074        0.07881345518352
N           -0.90227519471166       -1.45488055329687       -0.02442650024042
C           -1.79245594490476       -2.66462984921971       -0.14992893260176
H            3.83778915458674        1.32469939184087        1.01189217143320
H            3.97844797308238        1.26738861006838       -0.74860891786350
H            2.64382911184850        2.19829922757050        0.03679197751864
H            3.71860877229221       -1.60531549489318        0.13403530123292
H           -1.58796234316883        2.98015795927780       -0.05042161006062
H           -2.78696956633199        1.97764598736790       -0.93219790857949
H           -2.78371892810989        2.02531570415567        0.84642102843298
H           -1.64847446238983       -3.34435348164343        0.70117436744067
H           -1.65375295320152       -3.20726884354437       -1.08009994889017
H           -2.79286756985538       -2.25034324978070       -0.10943085135788
H            1.54179959676590       -2.94793082255249        0.11981861769642
