  72
        -99.35286267
 N         -1.8266956997        2.7481500918        2.4384892185
 C         -1.8404577144        2.1114842395        1.3653665678
 C         -3.0169910347        2.0202196782        0.4340027268
 C         -3.5483428092        0.5946647775        0.4234243134
 C         -4.5101811079        0.2206366942       -0.5172329984
 C         -5.0337036231       -1.0613153984       -0.5472178698
 O         -5.9682894153       -1.5015444357       -1.4133365306
 C         -6.5579590374       -0.5943235620       -2.3149581666
 C         -4.5777020278       -2.0258588351        0.3926446831
 O         -5.1357760250       -3.2473708091        0.2869316688
 C         -4.8159354185       -4.2325126827        1.2418920289
 C         -3.6237800370       -1.6473976905        1.3239520070
 C         -3.1187334976       -0.3532024422        1.3393958729
 C         -2.4744451099        2.3901690378       -0.9713455134
 C         -1.5993317776        1.3025987012       -1.6203514775
 C         -0.2621465460        1.1660842949       -1.0006851613
 N          0.3427272274        0.0201008182       -0.7177803931
 C          1.7359690187        0.0025802205       -0.3354748023
 C          2.6379788852       -0.4226929935       -1.5096210194
 C          4.0857367203       -0.2332883991       -1.1456658219
 C          4.7046311527        0.9888955897       -1.3700316037
 C          6.0345362859        1.1681254637       -1.0194444627
 C          6.7481442245        0.1423537627       -0.4398759442
 O         10.1454079815       -0.3835145894        1.0942020401
 C         10.0277249137        0.7984070318        0.9833949452
 C          6.1364265879       -1.0959191200       -0.2051528528
 O          6.9179908355       -2.0341034609        0.3603215506
 C          6.3999183954       -3.3195504296        0.6104270016
 C          4.7999570533       -1.2714749728       -0.5606578658
 C         -0.3247201718       -1.2529872538       -0.8505712450
 C         -4.1835859883        2.9759623756        0.8238556167
 C         -4.8008372111        2.5832737538        2.1640067338
 C         -3.7713041113        4.4449393030        0.8565837156
 H         -4.8661065380        0.9482141836       -1.2275045576
 H         -7.0350268719        0.2391354146       -1.7907989497
 H         -7.3158129334       -1.1647264216       -2.8483559798
 H         -5.8273198611       -0.2073559578       -3.0327837570
 H         -5.0641825947       -3.9028634548        2.2549336835
 H         -5.4241693397       -5.0972557018        0.9842112147
 H         -3.7575536354       -4.5082874224        1.1957939813
 H         -3.2715130319       -2.3524917736        2.0591553772
 H         -2.4006943555       -0.0884574610        2.1000772418
 H         -3.3183516074        2.5826041138       -1.6327579102
 H         -1.8988489046        3.3132882524       -0.8952488073
 H         -2.1379908097        0.3566790820       -1.6301674105
 H         -1.4415324332        1.6081335954       -2.6629507693
 H         -0.9601493469        1.5769267811        0.9550191324
 H          0.3369886427        2.0612790100       -0.9142102649
 H          1.8711977626       -0.6874454633        0.5017685381
 H          2.0317659036        1.0009231561       -0.0062421059
 H          2.3941577338        0.1947844879       -2.3761903803
 H          2.4458379262       -1.4657523680       -1.7632942685
 H          4.1565503468        1.7960424335       -1.8317346405
 H          6.5141312172        2.1160555743       -1.2082099590
 H          9.6195504815        1.4325948402        1.7833819911
 H          7.7835778289        0.2606625533       -0.1678923745
 H         10.3283673018        1.3470585898        0.0739765221
 H          7.2169290455       -3.8807878939        1.0590850372
 H          5.5587061784       -3.2835397144        1.3100451656
 H          6.0877066887       -3.8122357108       -0.3156466166
 H          4.3112114256       -2.2199891005       -0.3993313136
 H         -0.5145293702       -1.4920749652       -1.8992691352
 H         -1.2768570251       -1.2425340916       -0.3141723467
 H          0.3027635381       -2.0326346626       -0.4262624205
 H         -4.9525091072        2.8578864723        0.0518576114
 H         -4.0725721325        2.7056668484        2.9592623754
 H         -5.1420422306        1.5509453968        2.1528793358
 H         -5.6535343522        3.2234170617        2.3739476319
 H         -2.9860833195        4.6008141501        1.5899725899
 H         -3.4306638874        4.7938578785       -0.1147365726
 H         -4.6279811186        5.0485460428        1.1445734304
 H         -0.9650814869        2.7657945280        2.9745108496
