72
 energy: 22.679533940714 xtb: 6.6.1 (8d0f1dd)
N           -1.71128753538975        3.03922975444513        2.31275288908314
C           -1.67823904464283        2.27754030974453        1.31532307671498
C           -2.81360011151037        2.12336837492231        0.33978560952679
C           -3.33547061869207        0.69563644568073        0.39670905679794
C           -4.23645069098336        0.24481113956675       -0.57139558615909
C           -4.75541468527716       -1.03511631477245       -0.53326635312221
O           -5.64051632650459       -1.55256660225095       -1.43049402257078
C           -6.13947277976196       -0.72052288168832       -2.44456026823052
C           -4.36710323952404       -1.91783020729899        0.49939386374280
O           -4.92786523572498       -3.15787981974807        0.44755850281171
C           -4.63186497402911       -4.07207987001327        1.47196587515382
C           -3.48136979436928       -1.46755558616714        1.46089788712889
C           -2.97538588885699       -0.17287015745912        1.41027981631689
C           -2.22041847800703        2.42171401520253       -1.06477271146872
C           -1.35009186236020        1.29975374615887       -1.66363433530732
C           -0.02202191312373        1.19065235688745       -1.01843336458566
N            0.57959617766193        0.01693761727041       -0.64999022584428
C            1.98452986318995        0.00004127179018       -0.35260400518290
C            2.87018049844949       -0.32175877213925       -1.57959551676523
C            4.31968571461861       -0.35935666265005       -1.18368081153272
C            5.02273759496984        0.83408854665641       -1.05543210493592
C            6.35540223183076        0.83455798369573       -0.68090395564855
C            6.99840742803806       -0.37481406819338       -0.39588422788356
O            8.32130926773693       -0.49870297567591       -0.08362257235064
C            9.08678670141375        0.66367361541878        0.09513043191660
C            6.27792476651014       -1.57494707763090       -0.45008862344971
O            7.12810561743999       -3.11284899672482        2.86757410676814
C            6.93938672535893       -4.30394673564979        2.73017298701555
C            4.96088568925752       -1.55734054674785       -0.86229133456130
C           -0.11118958445816       -1.23768142866686       -0.76267192060054
C           -4.00821211413051        3.07984789513575        0.61907770648542
C           -4.67812077025096        2.76815916798569        1.95670770567326
C           -3.62346917267267        4.55746792623990        0.57389874273246
H           -4.53800213170610        0.91355404569508       -1.36073292870455
H           -6.66190645771559        0.14888136388700       -2.03203377887479
H           -6.84619065166352       -1.33426275089306       -3.00094365484458
H           -5.34813886958022       -0.38138426080836       -3.12222729398723
H           -4.94026593657461       -3.69573023792358        2.45319905368087
H           -5.20253019554863       -4.96883459142988        1.23427941507809
H           -3.56513150761868       -4.31713984620106        1.50202882942651
H           -3.17885089797015       -2.11059837508369        2.27236882865198
H           -2.30779485780717        0.15362160094384        2.19309490766936
H           -3.04452208989672        2.62500389516040       -1.75067739711021
H           -1.61955243595526        3.33090629052030       -1.00157124445278
H           -1.89080972154367        0.35573092723926       -1.61990060141852
H           -1.21308328532509        1.54631512366292       -2.72859321594040
H           -0.79993456967438        1.68378075264095        1.02668479872312
H            0.59480902427664        2.06764620365625       -0.96310253978222
H            2.16433156467952       -0.75081252037161        0.42492822270328
H            2.26856972310600        0.97811406730560        0.04622785207289
H            2.69845914969813        0.45355012945218       -2.33419522004207
H            2.57679134121068       -1.28856475471560       -1.99851181782562
H            4.53644599221653        1.77587790149641       -1.24952525059548
H            6.86694672613528        1.78518127984647       -0.59916406776160
H            8.73653103202946        1.23260845778399        0.95863531375091
H            9.08817133327361        1.29835183712474       -0.79864243988272
H           10.10117033272538        0.31570549634238        0.27024451090236
H            7.67846931270072       -5.01482519240304        2.32188542715699
H            5.94616355667716       -4.73845869896876        2.89008668669381
H            6.78478686792935       -2.50188312829295       -0.15873200579850
H            4.42025010769050       -2.49110693916856       -0.93556863369670
H           -0.30048808556604       -1.52665184086498       -1.80323737257481
H           -1.06907005941360       -1.18167517394035       -0.23947415191430
H            0.49425800973506       -2.00998974862847       -0.29321735125148
H           -4.74436240528356        2.89859093963979       -0.17357200721905
H           -3.98082010252456        2.95063897253587        2.76798489377215
H           -5.00442343600785        1.73168051012443        1.99779367198426
H           -5.54856000340610        3.40745792366903        2.08864130941399
H           -2.89003562095504        4.77436530515499        1.34289823899835
H           -3.21854999998456        4.84127634993405       -0.39402286809536
H           -4.50682688079790        5.16376142578339        0.76053827268577
H           -0.86159332699923        3.06823501137615        2.87255750583301
