72
 energy: -1.658358529094 xtb: 6.6.1 (8d0f1dd)
N           -1.51355825757483        2.79988439886864        2.24387474909317
C           -1.56142627903106        2.16070772146520        1.16464022573518
C           -2.75279680498063        2.06615124982766        0.25404042749413
C           -3.31771622076717        0.65354413570310        0.33209741327079
C           -4.29744426034429        0.24571268112272       -0.57489175150596
C           -4.83915721226652       -1.02447902416025       -0.53041438740305
O           -5.79961976903775       -1.49860913021678       -1.37330099726369
C           -6.36761440693162       -0.62182607593511       -2.31182008573683
C           -4.39532468795993       -1.93970490612678        0.44997733134372
O           -4.98424575906469       -3.16858315689485        0.41665963109562
C           -4.65834611929710       -4.09631944894759        1.41864652090029
C           -3.42936990036631       -1.53384502684549        1.35008058698607
C           -2.89714840966653       -0.25059576769872        1.29023643208110
C           -2.19898839904620        2.31371584800149       -1.17360628882100
C           -1.26898652794138        1.19257358588107       -1.67048145237373
C            0.00284110211283        1.13544475007160       -0.90082442423005
N            0.63533526928563       -0.04698078138291       -0.57414519904051
C            2.00674070231873       -0.03583998525438       -0.17960162854153
C            2.94120432108667       -0.52548613962266       -1.31144084552313
C            4.37606234092744       -0.44849557176982       -0.87931886767430
C            5.07769225750515        0.73376797244861       -1.03848803248119
C            6.39500236641725        0.81021523669933       -0.61689023622777
C            7.00428966858022       -0.26117429262664        0.01887382576250
O            8.29065127547397       -0.25577851473616        0.46948052344154
C            9.07074027643288        0.89775792846662        0.29226836432892
C            6.28353922161829       -1.46290230034319        0.27943416682186
O            6.92410619862878       -2.33200870909297        1.14688796202238
C            6.40017597183772       -3.63769024500668        1.28144519177595
C            4.98844318789926       -1.52838435676528       -0.22209803715821
C           -0.05637822767777       -1.29983031276239       -0.63923471786572
C           -3.88501501892520        3.07697558985614        0.58659302815224
C           -4.51603819917769        2.77414852121371        1.94439560254751
C           -3.42057796072438        4.53182395531216        0.55235378426274
H           -4.64514140470974        0.94053525558130       -1.32172573973702
H           -6.82763016307699        0.24685123814728       -1.82865880709147
H           -7.13844755380255       -1.20058091499078       -2.81853812571521
H           -5.63184768302536       -0.28087349168911       -3.04846856678053
H           -4.88933654082321       -3.71128327893087        2.41760861595345
H           -5.27814220960134       -4.96894160594085        1.21730935604316
H           -3.60309091128440       -4.38712297059336        1.37522760719218
H           -3.08221792559664       -2.20510102009022        2.11980685222717
H           -2.16298658040083        0.03917622776342        2.02628382260585
H           -3.03097551144269        2.40949357560888       -1.87285270089958
H           -1.64873019871600        3.25625202394625       -1.18078426096259
H           -1.80802877981800        0.24750455954204       -1.62610005613937
H           -1.03198076996731        1.39407749015099       -2.72407123874221
H           -0.69372941649591        1.65319940983973        0.67565666723906
H            0.64790703190236        1.99637485586943       -0.95626518537770
H            2.13296142137909       -0.67727623301887        0.69942589689826
H            2.29506349473584        0.98071363492164        0.09989308038836
H            2.76279944893032        0.10942483191072       -2.18402067156667
H            2.66917928041548       -1.55066313417403       -1.56495715621976
H            4.61345472290414        1.58564084474497       -1.51726088379443
H            6.92308304231713        1.74300049362306       -0.75291534961742
H            8.65416164548998        1.75165153367764        0.83519893471639
H            9.18419861036710        1.16074896059613       -0.76627709340185
H           10.04553971606958        0.65018505157219        0.70963270749050
H            7.15722908911010       -4.31034210601346        1.71235560445585
H            5.50660480530073       -3.64979611152276        1.92190876416933
H            6.16833135534751       -3.91274117908201        0.25406657580042
H            4.40325883061440       -2.42569457300792       -0.09266996208526
H           -0.23214341738807       -1.61529183260481       -1.67364804682171
H           -1.02162464755248       -1.23514574639019       -0.12772190896473
H            0.54903133376842       -2.05573822069804       -0.14412647341463
H           -4.65650476664439        2.95226953802318       -0.18243211860219
H           -3.78237346086017        2.90725322775295        2.73167603521253
H           -4.88959972209655        1.75353069609048        1.98065458922419
H           -5.34719408793616        3.45244288400348        2.12336879211942
H           -2.63296750896902        4.69255762479613        1.28150318745518
H           -3.06133881797140        4.81800372347732       -0.43273721617848
H           -4.25621740309059        5.18176518241540        0.80352874584233
H           -0.62634362355581        2.79728093481314        2.74206314866057
