72
 energy: 43.233722731775 xtb: 6.6.1 (8d0f1dd)
N           -1.66392377396166        2.96973816725507        2.30032531346169
C           -1.64690437423497        2.24483091998237        1.27608066217929
C           -2.80138281326494        2.10913465941215        0.31864720588078
C           -3.33408952913614        0.68625434535475        0.38291077999842
C           -4.25086880786538        0.24258904568698       -0.57145993334042
C           -4.77259560738027       -1.03636692396132       -0.53113922837712
O           -5.67271763065800       -1.54478713656177       -1.42045530250770
C           -6.19499438161779       -0.69808266910050       -2.41280896876137
C           -4.37296865244602       -1.92138578643480        0.49590932746663
O           -4.93348025223002       -3.16167366920266        0.45567408391820
C           -4.62942186433764       -4.07035736868393        1.48303170120563
C           -3.46935779993631       -1.47975427302359        1.44213389652579
C           -2.95749672011774       -0.18909244748164        1.38442798283058
C           -2.22089881499668        2.39646948266293       -1.09255303755250
C           -1.32775140325680        1.28375748387658       -1.67381543577593
C           -0.00709197036106        1.18899139753079       -1.00622057637728
N            0.60727523429354        0.00643558790765       -0.67762836125459
C            2.00496883484693       -0.02211397414106       -0.32462674515727
C            2.92124556508423       -0.39777949489331       -1.51967424739258
C            4.35543475306087       -0.41697638186916       -1.10205142894965
C            5.05408214252032        0.77818123317654       -1.03308827898960
C            6.38189543698672        0.77464038343527       -0.65455314145991
C            7.01558951897439       -0.42903273478901       -0.28365159559652
O            8.33397711034833       -0.48756127693045        0.08461597663939
C            9.08407092544001        0.70268276538689        0.14606893267806
C            6.31263599719554       -1.66123988734527       -0.28900782250106
O            6.70253682443737       -2.75668737635149        2.42088833535333
C            6.86502901839172       -3.94453317211337        2.25231652705700
C            4.98284999874591       -1.59486167411340       -0.67893055864343
C           -0.09377080076804       -1.24896578949851       -0.74528315275883
C           -3.98511891337669        3.07769865376752        0.61030260645200
C           -4.64528987795321        2.76853950368257        1.95309383803586
C           -3.58548090248326        4.55077962061935        0.57019067609314
H           -4.56213214020801        0.91604284626111       -1.35315466991973
H           -6.70143666013216        0.17210090298370       -1.98093540290675
H           -6.92106168736004       -1.29936312139072       -2.95863630739733
H           -5.41805031368071       -0.35778445946938       -3.10581215464835
H           -4.93382758208806       -3.68993091383653        2.46432489436022
H           -5.20032989772295       -4.96877762637522        1.25317670171186
H           -3.56366735033790       -4.32139989118514        1.49759852252031
H           -3.15569722109484       -2.12901456191202        2.24406822006725
H           -2.27051671137901        0.12882436311965        2.15310724695882
H           -3.04953846148330        2.56136310173294       -1.78441222840057
H           -1.63558236361178        3.31593555589531       -1.04438777544875
H           -1.86426747791990        0.33910502268798       -1.62526597050010
H           -1.17723104147490        1.51474766297768       -2.74182189729417
H           -0.76848790466741        1.67238182782662        0.91833980357995
H            0.61811340908124        2.06655325723826       -1.00036699396025
H            2.17290989455192       -0.73061375396341        0.50192093159199
H            2.28791158595838        0.96901641084593        0.03030080799921
H            2.79582705370551        0.36775318288129       -2.29608769938510
H            2.61185576160672       -1.38310187824356       -1.87731820258662
H            4.56924432573769        1.70861967597825       -1.25203550128790
H            6.89812651714852        1.72404048704809       -0.61377820457908
H            8.71062313837153        1.36715721353332        0.92789814294430
H            9.06780687768042        1.25326475730396       -0.79696120771452
H           10.10136971340503        0.40202341460119        0.39519781574407
H            7.81140470507406       -4.49441790493209        2.25917225723670
H            6.02244436196159       -4.57982982672708        2.35947570949992
H            6.72344992219866       -2.74162069537632        0.29006067891835
H            4.43474048706016       -2.52396887748144       -0.67309691697935
H           -0.28088254539000       -1.55280048775071       -1.78089809375866
H           -1.05490303777594       -1.18290131452855       -0.22768389015449
H            0.50122754955865       -2.02362705218529       -0.26399737530276
H           -4.73054696424023        2.91087804496184       -0.17760594869621
H           -3.93970835018334        2.93878776913048        2.75779984109790
H           -4.98402198321882        1.73610350698098        1.99296584892168
H           -5.50495645077302        3.41903430423250        2.10147069306941
H           -2.83604130455294        4.74986030237932        1.32883383939799
H           -3.19687812577604        4.83423594120906       -0.40370183444185
H           -4.45898212912748        5.16832804787502        0.77407704520636
H           -0.80621237631846        2.99653720803791        2.84373520653451
