72
 energy: 25.618965180042 xtb: 6.6.1 (8d0f1dd)
N           -1.70009356267615        3.01832497773415        2.30932509211883
C           -1.67095696117117        2.26806865214271        1.30311960829880
C           -2.81445443381020        2.11992226813041        0.33544330172416
C           -3.33778241813014        0.69392801945809        0.39632994372323
C           -4.23824449185826        0.24169843793638       -0.57012682724166
C           -4.75497912345643       -1.03904186240713       -0.53124906889123
O           -5.64015628358031       -1.55559830449769       -1.43087569037115
C           -6.15124032321507       -0.71745080686976       -2.43661304267182
C           -4.36678587617432       -1.91691573138754        0.50646172289544
O           -4.92354171028199       -3.15900076620503        0.46171597169244
C           -4.62682803863427       -4.06497607458476        1.49281704861981
C           -3.48004523976416       -1.46675621291910        1.46460521689132
C           -2.97268660587087       -0.17419995172171        1.40809839785916
C           -2.22360061472283        2.41664813677916       -1.06935376935934
C           -1.34209224966393        1.30383281103954       -1.66680880643944
C           -0.00814081714602        1.19206800852952       -1.03397088754191
N            0.59292682537874        0.01622634198173       -0.67118159495201
C            1.99734311953358       -0.01444650021891       -0.34743929707522
C            2.90051933631548       -0.35984136438151       -1.55585994385289
C            4.33881332260997       -0.38338390455245       -1.15740111421845
C            5.04635039076737        0.79835911586820       -1.04697526330738
C            6.37960292217211        0.77774717686868       -0.67695552202422
C            7.01741579273240       -0.42090045198948       -0.35450867472043
O            8.32872785201186       -0.52380509874403        0.00481720596215
C            9.09439479539982        0.65504632697885        0.11713954956087
C            6.28601382318720       -1.62890080943397       -0.34884074431931
O            6.81023564183545       -2.90196290570511        2.73945598222020
C            6.87479522499469       -4.07367685422142        2.43309538918757
C            4.97549855560115       -1.57488233176830       -0.78293085878519
C           -0.10342633946497       -1.23822397662867       -0.76814866120569
C           -4.00957722940732        3.07770117286274        0.61659541014262
C           -4.67685089340351        2.76661150727645        1.95537351413206
C           -3.62636654077550        4.55523489133043        0.57325175602166
H           -4.54074483663901        0.90981549818699       -1.35987937384638
H           -6.66946668353102        0.15259200166836       -2.01847163946160
H           -6.86562986274574       -1.32582841269629       -2.99005618835210
H           -5.36512677317945       -0.37759170098268       -3.11944687547316
H           -4.94473815532453       -3.68483638902293        2.46955559053232
H           -5.19111768375489       -4.96613288409275        1.25807971616765
H           -3.55828575253011       -4.30715347626965        1.52644772409210
H           -3.17568450391655       -2.11044087673289        2.27444595911559
H           -2.29838218271188        0.14973449296322        2.18522678454045
H           -3.04780367725512        2.59921769489693       -1.76219000080699
H           -1.62959297785542        3.32982040837694       -1.00896469073362
H           -1.88281178177349        0.36078908234413       -1.62411843725343
H           -1.20548370146491        1.55267493636201       -2.73138501049415
H           -0.79066446411640        1.68159922837319        0.97969926486176
H            0.60126093600022        2.07713608056957       -0.96964066554933
H            2.17402331724346       -0.74434417265259        0.45688303513314
H            2.27683258149770        0.97093851386457        0.03943479323994
H            2.76401636044572        0.41862900973295       -2.31179393709802
H            2.59986589595858       -1.33724180818172       -1.94530137420946
H            4.55975700299768        1.74035812551881       -1.25110084462965
H            6.88810113300647        1.73051520226209       -0.59740382930106
H            8.74615437391157        1.27218110413549        0.94638850715422
H            9.06215134828162        1.28437988650864       -0.77502543656938
H           10.11523262288934        0.33400617268365        0.31830657119285
H            7.77138431047311       -4.65722513310809        2.14719164931110
H            5.96877328040955       -4.67875765491797        2.44524148152110
H            6.69944154989120       -2.56064007004101        0.11781998531668
H            4.41834954327294       -2.50540134377074       -0.78994553987179
H           -0.29014004408075       -1.53247913114085       -1.80699055247244
H           -1.06464235056859       -1.17275863054318       -0.25211186462399
H            0.49286587781301       -2.01503362234584       -0.29362739394608
H           -4.74778429615856        2.89824304411604       -0.17541684265565
H           -3.97935501783042        2.94647671143575        2.76561341419900
H           -5.00691433102002        1.73137635057663        1.99592067324917
H           -5.54381868830465        3.40949493464712        2.09335967182526
H           -2.88632447969142        4.76707530362440        1.33811313649265
H           -3.23107808858075        4.83916280968569       -0.39786458357095
H           -4.50955080980817        5.16272418432584        0.76466607018835
H           -0.85053768761028        3.04954088436571        2.86799799732137
