72
 energy: 44.044176973305 xtb: 6.6.1 (8d0f1dd)
N           -1.58500978594855        2.88903934043954        2.27024807291109
C           -1.60189270578602        2.19748784192816        1.22291574842883
C           -2.77545268675162        2.08737732402378        0.28619658766435
C           -3.32612694942424        0.67075854682632        0.35673710120834
C           -4.27564046165128        0.24468957084783       -0.57256548708614
C           -4.80702393199701       -1.03028371396551       -0.53050726278844
O           -5.73706008063080       -1.52351148903981       -1.39850650141591
C           -6.28170508223761       -0.66045023637055       -2.36322688197182
C           -4.38455700261969       -1.93022701584084        0.47265980245244
O           -4.95916696215166       -3.16600524342259        0.43612249790549
C           -4.64362751370238       -4.08340861620916        1.45080577629587
C           -3.44925282367992       -1.50617598828068        1.39604944444172
C           -2.92770251760469       -0.21924304611703        1.33693844562226
C           -2.21076852258786        2.35457014083162       -1.13520314292401
C           -1.29359140762925        1.24100818374311       -1.67764659710567
C           -0.00429836555615        1.17530374295747       -0.93588352485595
N            0.62689616357925       -0.02028931374146       -0.63017600010524
C            2.01158732506160       -0.03453051733613       -0.25232258208878
C            2.94313677902511       -0.47304873591924       -1.41965018289633
C            4.39091826914687       -0.47281612984134       -1.00514091476457
C            5.06891992546101        0.73658508764911       -0.99970839115745
C            6.39376837721700        0.73643178801657       -0.60832018775202
C            7.01585079480199       -0.39986771242001       -0.07411372055955
O            8.32684008797010       -0.38840950765185        0.28869336198765
C            9.07579461700145        0.80243302592781        0.21028337276886
C            6.25275245521073       -1.56963700204599        0.17910035051957
O            6.67065226619478       -2.32042471588473        1.60000583242184
C            6.72811907679901       -3.75406819591545        1.65098831778363
C            5.00042226222520       -1.60309623162111       -0.41926427736474
C           -0.07379637972661       -1.27503185961363       -0.69330187223433
C           -3.93554520020166        3.07696722744962        0.59714174784571
C           -4.58168881280791        2.77209414540628        1.94769006598589
C           -3.50353665122152        4.54112756967267        0.56112850750509
H           -4.60426874103185        0.92855030890212       -1.33774684552154
H           -6.76425242304451        0.20952758919509       -1.90466830471679
H           -7.03059685512034       -1.24932156610492       -2.89119191138634
H           -5.52429029319102       -0.31903983443926       -3.07719569061608
H           -4.91124115829943       -3.70001485998035        2.44140987137101
H           -5.23906998104751       -4.97004114672395        1.23564971401149
H           -3.58243391800073       -4.35395951866592        1.43611955143415
H           -3.11778959016202       -2.16644074468070        2.18204684956775
H           -2.21621215522565        0.08583779394751        2.08867209171367
H           -3.04358148665622        2.48536008866142       -1.82922482518886
H           -1.64246875601745        3.28564806987082       -1.11263267082529
H           -1.82847199901083        0.29545186609910       -1.62743144962834
H           -1.10354933880312        1.44817048625627       -2.74406207804446
H           -0.72968747159968        1.65525539807455        0.79666047579206
H            0.65248446150074        2.02772592338718       -1.00922402190860
H            2.16141350077468       -0.70754966018563        0.60325055302908
H            2.29186755546371        0.97174344903958        0.06195453426339
H            2.77010999976349        0.23826505405929       -2.23792865175394
H            2.63436320134918       -1.47253766809382       -1.72578145166578
H            4.59636328908898        1.64220413548137       -1.37138410154643
H            6.93537164784083        1.67130992026688       -0.65221521187904
H            8.67409858609934        1.56207736161900        0.88657432785983
H            9.12467588270967        1.21541668755205       -0.81094538365263
H           10.07483033448316        0.52676008371467        0.54898288561665
H            7.60954463369659       -4.31520646083562        2.01631426210363
H            5.82370803425437       -4.06724380937082        2.22610797796837
H            6.82796344554138       -3.88869697063635        0.59433173988475
H            4.40887350571035       -2.49830720997389       -0.36590890477802
H           -0.25798516359748       -1.58821428521049       -1.72758631620979
H           -1.03734521666267       -1.20927164797796       -0.17890993932491
H            0.52177139353472       -2.04464915384724       -0.20386942558218
H           -4.69449147253617        2.93358461624749       -0.18196195700091
H           -3.86101188879799        2.92402087066775        2.74216098768113
H           -4.93744666962566        1.74515536432727        1.98659329146567
H           -5.42687633739839        3.43718512210095        2.11345229612885
H           -2.73494042328473        4.71725077485019        1.30567297803174
H           -3.12898406556340        4.82419168106916       -0.41848750685777
H           -4.35755641650363        5.17703777387534        0.78899012330886
H           -0.71548259651406        2.89552738707134        2.79255774870423
