72
 energy: 21.731351138847 xtb: 6.6.1 (8d0f1dd)
N           -1.70660221104006        3.01849146679736        2.32135741845291
C           -1.67314146060479        2.27262337669874        1.31159114599394
C           -2.81307342512796        2.12118483329671        0.34048674452838
C           -3.33551245328752        0.69358994661423        0.39716013690256
C           -4.23926421348987        0.24472324571518       -0.56930447025183
C           -4.75761243261387       -1.03557078126222       -0.53328134238291
O           -5.64548882348973       -1.54928124314805       -1.43092192219272
C           -6.15506392403014       -0.71050723761556       -2.43666796933244
C           -4.36753192662303       -1.91852032518872        0.49905122414604
O           -4.92885700530841       -3.15920860610666        0.45083887165079
C           -4.63068642054487       -4.07160208848971        1.47627700678913
C           -3.47800458836513       -1.47127011304907        1.45813510614991
C           -2.97000754055188       -0.17778982070011        1.40677218496682
C           -2.22601117888175        2.42002751073028       -1.06595425404527
C           -1.35091232208312        1.30231926453004       -1.66178327852094
C           -0.02870118089589        1.19761398645022       -1.00309328048325
N            0.56999550201068        0.02127085888670       -0.63206753890114
C            1.97651596867285        0.00631093272984       -0.34714108148787
C            2.85267137444787       -0.30387323580837       -1.58270200241128
C            4.30190077353040       -0.32111769721381       -1.20143511133864
C            5.00802859016421        0.86509220775397       -1.06428594694887
C            6.34188724615236        0.87188634167383       -0.69375065245952
C            6.99545413609150       -0.33346633233778       -0.45507950126635
O            8.30352902792107       -0.47365242020501       -0.11107185763643
C            9.07839390168730        0.67874426589572        0.09248310983634
C            6.28735596526838       -1.53022055456071       -0.57456452466125
O            7.27759036942737       -3.20697558532440        2.98336665722482
C            6.94816474773748       -4.34504050205357        2.75554395362065
C            4.95881206776165       -1.51911845864477       -0.93511985576103
C           -0.11222962502464       -1.23745401764428       -0.75429500554681
C           -4.00628272226363        3.07832948125038        0.62436923664368
C           -4.67459132707936        2.76362856897697        1.96187072319253
C           -3.62011071482668        4.55584679329016        0.58167139793491
H           -4.54510321972392        0.91520999162750       -1.35582815067497
H           -6.67321945554326        0.15854884908170       -2.01622774102579
H           -6.86926274264958       -1.31970965867049       -2.98945576639153
H           -5.36861972541868       -0.37107961880078       -3.12042244128013
H           -4.93909570163222       -3.69404955863738        2.45693420363913
H           -5.20152978432351       -4.96861908727815        1.24101014649471
H           -3.56372359461195       -4.31935912639136        1.50359969054882
H           -3.17382088922658       -2.11625393390880        2.26757159751398
H           -2.29808820002827        0.14470972794471        2.18729295481508
H           -3.04902632541317        2.61512941831847       -1.75484101411858
H           -1.62676120027010        3.33008579642917       -1.00552983015294
H           -1.88927179842585        0.35685674077035       -1.62374285170425
H           -1.20430850488918        1.55362412225771       -2.72341326829079
H           -0.78963168446557        1.69131746405465        1.00087214141925
H            0.59909088391069        2.07143220288204       -0.97714814046547
H            2.16703940162582       -0.74578871482316        0.42367986655196
H            2.26400292379988        0.98249099717926        0.05426640145183
H            2.67412186313229        0.46677961967905       -2.33572838307772
H            2.55792595472589       -1.27090233994673       -1.99883495921288
H            4.51189744982210        1.80812894164599       -1.25784699264829
H            6.85453236372261        1.81695458971461       -0.59748030150402
H            8.70375580020191        1.26668257900097        0.93614546339154
H            9.11457559725209        1.30556866577825       -0.80595036758606
H           10.08312835173511        0.32269553650584        0.31634360208066
H            7.62572337411670       -5.08855593163232        2.30007151242177
H            5.96169790781550       -4.75318205810471        3.04568063472011
H            6.82410711801295       -2.45229045337855       -0.40943026691729
H            4.42197758385949       -2.45442479548596       -1.01395779669721
H           -0.29142407958625       -1.52253957436895       -1.79774149563204
H           -1.07529334118011       -1.19470013099037       -0.23721899809656
H            0.49635482637547       -2.00860148069383       -0.28683432325812
H           -4.74288914100109        2.89877230555440       -0.16856046565261
H           -3.97735811072066        2.94264790341043        2.77299341897628
H           -5.00425188150431        1.72811776617009        1.99997598648230
H           -5.54199144204368        3.40538028479200        2.09820816768650
H           -2.88200013473165        4.77037422294314        1.34758031423134
H           -3.22238139270764        4.84139491966454       -0.38888535135722
H           -4.50230087052404        5.16266140936052        0.77459008861833
H           -0.85241952927254        3.04884679048659        2.87489265779341
