72
 energy: 3.253197534522 xtb: 6.6.1 (8d0f1dd)
N           -1.52495438308947        2.81558417911589        2.24830784305046
C           -1.56815456953006        2.16529347292713        1.17537114346886
C           -2.75637330814054        2.06941374385957        0.25956853242187
C           -3.31931527677954        0.65647179011406        0.33642760087137
C           -4.29443383451001        0.24576831009763       -0.57375188792859
C           -4.83407609316143       -1.02540922846791       -0.53023717719862
O           -5.78927217545180       -1.50326965969218       -1.37774982579842
C           -6.35323581922875       -0.62877222800442       -2.32071359897046
C           -4.39350471568870       -1.93817683450472        0.45355892197324
O           -4.98026935736011       -3.16846969111731        0.41974856255738
C           -4.65616075150866       -4.09408722202760        1.42400610287446
C           -3.43261210850862       -1.52923312887012        1.35760339891260
C           -2.90232180761489       -0.24536006254909        1.29812368891734
C           -2.20050997841229        2.31957371650814       -1.16717360159258
C           -1.27148151769287        1.20027216326068       -1.67268094663655
C            0.00191690751004        1.14167971902373       -0.90407636148053
N            0.63536538782205       -0.04453814555478       -0.58270561161226
C            2.00824386512802       -0.03655511384561       -0.19020975209245
C            2.94345508735568       -0.51710465775060       -1.32778855721786
C            4.38193989697940       -0.45545095200065       -0.89900740231982
C            5.07711886785159        0.73377703534046       -1.02934736622178
C            6.39833160160350        0.79350748133683       -0.61883941197291
C            7.00621731052954       -0.28890820287216        0.00235508433199
O            8.29809490154874       -0.28027759192674        0.43791884810115
C            9.07150425575112        0.88112655143538        0.27792532947914
C            6.27954021828009       -1.49193583216917        0.28173335030530
O            6.89878923219698       -2.30607800742948        1.24327932093488
C            6.44946724685402       -3.65059782711918        1.35266045649817
C            4.99486764708326       -1.54554518626908       -0.25111577941214
C           -0.05900127786828       -1.29684043765834       -0.64756234894726
C           -3.89375017931433        3.07676297471109        0.58786223241996
C           -4.52796153464984        2.77424914521935        1.94435430697570
C           -3.43495946067835        4.53321496771862        0.55352758541312
H           -4.63861126638240        0.93884063602275       -1.32373745889612
H           -6.81712441842777        0.24019836124151       -1.84172266474329
H           -7.12019487043297       -1.20944829484980       -2.83116912312371
H           -5.61363524977762       -0.28753002608070       -3.05335322822329
H           -4.89325971851320       -3.70888754613601        2.42151200134975
H           -5.27196587137365       -4.96915241168025        1.22041251697824
H           -3.59980709909292       -4.38143413736233        1.38548555465095
H           -3.08782908813820       -2.19872454649815        2.12994450216638
H           -2.17201075470590        0.04741827319820        2.03674563307940
H           -3.03280341877762        2.42177045276596       -1.86565703324202
H           -1.64716740930483        3.26018512250222       -1.16891186171773
H           -1.80922775807519        0.25505610865770       -1.62747181353732
H           -1.04233963377262        1.40230784177173       -2.72885813085086
H           -0.69999609816635        1.65119210698601        0.69649084054999
H            0.64919416917809        2.00108268544382       -0.96454929170580
H            2.13863294502173       -0.68264191294443        0.68529762353009
H            2.29203784360554        0.97934936584235        0.09507374022022
H            2.76256426748048        0.13169344413458       -2.19078960769326
H            2.66362301639593       -1.53738656398472       -1.59133943996387
H            4.61032834785361        1.59576686622823       -1.49169068806832
H            6.92414829206015        1.73198998642058       -0.73391412766150
H            8.65582709324293        1.71931033735859        0.84487622606025
H            9.17599197423471        1.17150295674092       -0.77531535871713
H           10.05041378400552        0.62817605864100        0.68276536107986
H            7.22164450114198       -4.33619387503521        1.74731989173273
H            5.54819912564450       -3.72025805490318        1.98205723665162
H            6.25463454059994       -3.85868383978185        0.31059869089735
H            4.40290615975962       -2.43930033566776       -0.13617436358895
H           -0.23625727786940       -1.61245010285053       -1.68183037851462
H           -1.02430488338285       -1.23039584821007       -0.13630824624576
H            0.54365834906940       -2.05518997030608       -0.15222230507405
H           -4.66297932991326        2.94945131575247       -0.18311604057296
H           -3.79647427205734        2.91073730980330        2.73256217794203
H           -4.89844330910024        1.75249325202669        1.98148517360090
H           -5.36145092117287        3.45051973648570        2.12116031590574
H           -2.65066879728929        4.69586833223907        1.28541317668016
H           -3.07284308420298        4.81835562729261       -0.43061569750486
H           -4.27365266178054        5.18124206583612        0.80059217874848
H           -0.64145669410803        2.81323665890048        2.75197645021690
