72
 energy: 15.580873063997 xtb: 6.6.1 (8d0f1dd)
N           -1.54760164528016        2.84622709085830        2.25638233865795
C           -1.58111384594352        2.17553210956814        1.19532775916574
C           -2.76369133228220        2.07617886420891        0.27055826912113
C           -3.32251967586509        0.66228637162763        0.34465027078579
C           -4.28765480096114        0.24545907708354       -0.57279600835051
C           -4.82367384629355       -1.02741202571328       -0.53029482713563
O           -5.76860375081686       -1.51180549925780       -1.38660294515898
C           -6.32458742319909       -0.64133496013339       -2.33787554112707
C           -4.39020771698587       -1.93510021690307        0.46093807407736
O           -4.97199691132333       -3.16805192743997        0.42604046789829
C           -4.65121215969660       -4.09009720519889        1.43444713831108
C           -3.43958288107338       -1.51998857109114        1.37282407208892
C           -2.91285797726469       -0.23495266270621        1.31356152634491
C           -2.20495648963406        2.33304119514770       -1.15452589512425
C           -1.27895124689693        1.21712177441544       -1.67582555121221
C           -0.00049256704748        1.15632590931455       -0.91376240995078
N            0.63418035628143       -0.03605400936953       -0.60437172852463
C            2.01032805517051       -0.03719402750853       -0.21435903845283
C            2.94553459276186       -0.50137505891562       -1.36361572829995
C            4.38897988642691       -0.46671028705653       -0.94138883943433
C            5.07692465366257        0.73201716725907       -1.01417582707015
C            6.40270028282847        0.76166626190936       -0.62078410115740
C            7.01298660727213       -0.34026858179953       -0.03090041411061
O            8.31198686732306       -0.32567679229183        0.37861881577750
C            9.07242980245124        0.85046605235349        0.24992422130195
C            6.26717509113764       -1.53025020153729        0.26236580266862
O            6.81512796079709       -2.27268655852563        1.40492363560119
C            6.55339135094383       -3.68446233792322        1.49845595319778
C            5.00022964235107       -1.57317394589066       -0.31337725888150
C           -0.06378678095767       -1.28847703659614       -0.66674657997849
C           -3.91050210408570        3.07663125121442        0.59164974151289
C           -4.54957797830720        2.77351137648235        1.94588287205889
C           -3.46225549365661        4.53608726123009        0.55719346275566
H           -4.62491159936467        0.93476524369034       -1.32924896298994
H           -6.79553145721748        0.22812318540461       -1.86658514095692
H           -7.08452204701345       -1.22489958591547       -2.85564879376024
H           -5.57766559126231       -0.29969756055371       -3.06281012111798
H           -4.90033869649579       -3.70536852672110        2.42928582359356
H           -5.25897048055208       -4.96992081688986        1.22639846939071
H           -3.59281104496330       -4.37076465591004        1.40535070931557
H           -3.09970831281771       -2.18595718691716        2.15038985500549
H           -2.18941524799386        0.06280890359172        2.05682119856168
H           -3.03850469123594        2.44668533651657       -1.85042397440662
H           -1.64609834847917        3.27012974217500       -1.14650471900407
H           -1.81521642104446        0.27186560405470       -1.62763517676650
H           -1.06724561988699        1.42005525230683       -2.73727776524814
H           -0.71175031149474        1.64962652404048        0.73675932749477
H            0.65201002314504        2.01164417801900       -0.98454966534796
H            2.14812051778727       -0.69426981204061        0.65345931626825
H            2.29055115341050        0.97521274407075        0.08328556517524
H            2.76368079409838        0.17135585196672       -2.20983034371435
H            2.65169505561850       -1.51327962330910       -1.64221454977000
H            4.60686981834798        1.61536743190600       -1.43964296958833
H            6.92847604817273        1.70560335360539       -0.69770439306597
H            8.66033724405416        1.65846963876746        0.86116510288941
H            9.15589612389947        1.19040504953028       -0.79245233151641
H           10.06036804166564        0.59062836411011        0.62902989411088
H            7.37139598170328       -4.35190719029293        1.84593179518685
H            5.64089430473188       -3.85907227912249        2.09684037367475
H            6.45451796712223       -3.86020586288719        0.45587989800088
H            4.40357395821302       -2.46491358840870       -0.22694171876627
H           -0.24335028804448       -1.60422435060038       -1.70088191617326
H           -1.02872071883747       -1.22145047889667       -0.15487548577581
H            0.53540631230771       -2.05115010540536       -0.17247338044821
H           -4.67594669360080        2.94398695803323       -0.18253338538044
H           -3.82205797257841        2.91610996040365        2.73619718290847
H           -4.91407633936094        1.74957105437420        1.98398473179951
H           -5.38751094943537        3.44560338533877        2.11903633514355
H           -2.68419755286547        4.70301583713999        1.29427030811835
H           -3.09490099345449        4.82002267578681       -0.42511877960502
H           -4.30685265389281        5.17983211355704        0.79671069830132
H           -0.67085662998220        2.84369451051313        2.76955339900361
