72
 energy: 86.309900527211 xtb: 6.6.1 (8d0f1dd)
N           -1.60964488945329        2.91222751029086        2.27928745997506
C           -1.61621875104109        2.21624663497701        1.23885096273072
C           -2.78394270416393        2.09453310658766        0.29647892232934
C           -3.32848913998928        0.67556107388479        0.36528890430675
C           -4.26724832443140        0.24395234277432       -0.57289752043686
C           -4.79613281936976       -1.03228837658759       -0.53115456389353
O           -5.71499720266271       -1.53017579918875       -1.40576607450257
C           -6.25302314008610       -0.67280858568950       -2.38008551920024
C           -4.38097870540116       -1.92784531925944        0.48058935606164
O           -4.95007765310597       -3.16336796143370        0.44263609574258
C           -4.63866603571761       -4.07928196473341        1.46158988751492
C           -3.45559412196489       -1.49756099856387        1.41144386404905
C           -2.93706161637874       -0.20927257720006        1.35269317846940
C           -2.21365480191262        2.36927266877477       -1.12106265046621
C           -1.30570332864715        1.25484400043938       -1.67578872356024
C            0.00084016864495        1.17308003999802       -0.96841395911782
N            0.61599471692873       -0.00327012377738       -0.64976996522788
C            2.01154963837825       -0.02926686934371       -0.27678247270548
C            2.92863600420739       -0.44669023880616       -1.45598551084135
C            4.37432366612254       -0.45549290630573       -1.04620657248336
C            5.06056083770696        0.74852162623847       -1.01423125779254
C            6.38626550919347        0.75303036376407       -0.63014322039863
C            7.01358099101897       -0.40024620325139       -0.13798650549368
O            8.32623061484835       -0.42031796835191        0.21922517618166
C            9.07659476309879        0.76939653571728        0.18378919481335
C            6.24927387122102       -1.55114085540535        0.00452328726007
O            6.63311949115024       -2.39728621276481        1.90298474862599
C            6.81655023213746       -3.77285254272473        1.79568229103744
C            4.98471308562138       -1.60706794713941       -0.51375872384398
C           -0.08148336799160       -1.26518293242526       -0.71083324995756
C           -3.95213214903568        3.07751286571484        0.60146311284973
C           -4.60274940975409        2.77086145691537        1.94940809479859
C           -3.53067303717109        4.54438865137289        0.56414223206029
H           -4.59059868271964        0.92452050149492       -1.34318632179998
H           -6.74348543593864        0.19711736062838       -1.93012369517784
H           -6.99423633827089       -1.26571334236201       -2.91416057601098
H           -5.48891313999374       -0.33189889355775       -3.08704627063196
H           -4.91887018514811       -3.69699141546550        2.44897444123603
H           -5.22593692962827       -4.96976107876725        1.24101059417010
H           -3.57594350076140       -4.34312891390852        1.45641771559085
H           -3.13018728863597       -2.15374085102023        2.20298175134164
H           -2.23416119743649        0.10015822039744        2.11062012136683
H           -3.04526150056150        2.51016097792427       -1.81413005865372
H           -1.64046341910723        3.29679873162295       -1.09009396107563
H           -1.84115193746504        0.31011301132950       -1.62662024418198
H           -1.12633029248589        1.46840249667926       -2.74222905330878
H           -0.74167276172753        1.66022911404286        0.83795641459512
H            0.64457154894803        2.03943814875114       -1.01760473474502
H            2.16633119120153       -0.71445401452342        0.56834865289288
H            2.29555152650470        0.97095460333856        0.04954725267753
H            2.77200290835803        0.28352807411824       -2.26056565591560
H            2.62339092994098       -1.44262738004649       -1.77862775534094
H            4.58493507732327        1.66676167062250       -1.33316945012736
H            6.93348946718071        1.67795583817139       -0.62918729453986
H            8.68442757358155        1.49865732791125        0.89800577941520
H            9.09878242839929        1.22116520057146       -0.82086447017529
H           10.08268303950941        0.48564572566035        0.49489873437624
H            7.73482019094772       -4.27886918226828        2.11494005751374
H            5.94668345573210       -4.20913547190493        2.33843886677371
H            6.81721531815282       -3.71087977014818        0.72571657094500
H            4.41634468873059       -2.51646537378211       -0.47042681019930
H           -0.26511558562570       -1.57519752996737       -1.74476992068853
H           -1.04365052163967       -1.20116539318888       -0.19514352596056
H            0.51460153703652       -2.03627251296871       -0.22472211004771
H           -4.70633573453209        2.92611295220549       -0.18065529633039
H           -3.88745396412918        2.92909414084922        2.74752880553748
H           -4.95302711136887        1.74224717646407        1.98876237987283
H           -5.45262307853281        3.43111640140608        2.10960584103841
H           -2.76879790424505        4.72812164059740        1.31379407144676
H           -3.15162294917884        4.82766853483038       -0.41357085699759
H           -4.39101289450173        5.17428085503527        0.78416955326584
H           -0.74581943010053        2.93045200386090        2.80984255261920
