72
 energy: 53.715148286494 xtb: 6.6.1 (8d0f1dd)
N           -1.65095847024535        2.95543047127997        2.29577094643493
C           -1.63919942970435        2.23727501025490        1.26718177454209
C           -2.79702323777897        2.10558017520181        0.31313672373146
C           -3.33275067818848        0.68372377762056        0.37846652365905
C           -4.25496088921969        0.24299404128757       -0.57186950048979
C           -4.77838453532524       -1.03530560200051       -0.53126086609158
O           -5.68336528364530       -1.54114712404618       -1.41707448729995
C           -6.20945032665598       -0.69165885463376       -2.40489420643209
C           -4.37491684135133       -1.92286947263834        0.49197344506722
O           -4.93773835321710       -3.16215699727850        0.45228465961497
C           -4.63167594826718       -4.07255745177484        1.47744443341639
C           -3.46588744343491       -1.48416550471298        1.43443611234368
C           -2.95246974129492       -0.19407279636180        1.37650062361113
C           -2.21932538158630        2.38962901966367       -1.09985590440699
C           -1.32204712054835        1.27668930619521       -1.67489035039776
C           -0.00555977024676        1.18599769993008       -0.99573443929843
N            0.61047502266340        0.00412956219754       -0.67056490899923
C            2.00716174554304       -0.02424340267921       -0.31381154419317
C            2.92295882400566       -0.41004845190117       -1.50423536923055
C            4.35780450041580       -0.42749316955365       -1.08286079485813
C            5.05513591663260        0.76887211528364       -1.02730750803490
C            6.38210073943638        0.76100576465893       -0.64699720564633
C            7.01068771520876       -0.43778531765695       -0.25018701101513
O            8.33189622889255       -0.47509850011652        0.11887086752478
C            9.08002882362041        0.71794796675701        0.15512612088991
C            6.30721639413389       -1.67097326424618       -0.23999720894084
O            6.70913275241948       -2.69929506065778        2.33695451105648
C            6.86822181532514       -3.89503877590465        2.19117623597743
C            4.98135744762887       -1.60187989109739       -0.64059943557853
C           -0.09018352246376       -1.25283711631570       -0.73678419973949
C           -3.97696416435585        3.07768186444109        0.60804179219090
C           -4.63471297764571        2.76913801629789        1.95216977765248
C           -3.57172985431745        4.54921245268662        0.56873361437073
H           -4.56917819269963        0.91820679163037       -1.35081331670035
H           -6.71191990472838        0.17849964895042       -1.96844323150747
H           -6.93937918488927       -1.29070410447507       -2.94795714486698
H           -5.43567594977532       -0.35116953992657       -3.10136338620033
H           -4.93003509594583       -3.69178600939471        2.46038779996917
H           -5.20664676292530       -4.96910541776471        1.24986125408986
H           -3.56659011125552       -4.32672320390896        1.48712416805609
H           -3.14916236904001       -2.13519806558494        2.23378143106552
H           -2.26133996798006        0.12180986136407        2.14240137034197
H           -3.04899784757012        2.54858849715330       -1.79186137157767
H           -1.63702522881848        3.31118390451534       -1.05583585045791
H           -1.85801931170779        0.33189973378051       -1.62566365050738
H           -1.16532837997583        1.50285004504412       -2.74319544590558
H           -0.76193645387143        1.66875414434702        0.89872810227310
H            0.62490569518128        2.06028413423942       -1.00596919483708
H            2.17311477692194       -0.72694254671252        0.51761103517548
H            2.29442581028544        0.96902449100419        0.02946099058966
H            2.78976086671309        0.34782700044377       -2.28744083505699
H            2.61411198651007       -1.39728374485954       -1.85505634449403
H            4.57537282568429        1.69753627337037       -1.27496291659647
H            6.90536602240773        1.70559029999943       -0.61835477624827
H            8.70371513477546        1.40146429545718        0.91975615495901
H            9.07285729413976        1.24016827230496       -0.80543758156756
H           10.09596721796245        0.42321448454075        0.41874346262090
H            7.82425830535046       -4.42864647016948        2.22714298995900
H            6.00858457100648       -4.49495634180210        2.35150595264249
H            6.72974125624579       -2.82164876141545        0.35817617872324
H            4.42439321737206       -2.52369968667785       -0.62574847297553
H           -0.27714577867002       -1.55858501530511       -1.77199480062610
H           -1.05155195239043       -1.18758230059407       -0.21932560024751
H            0.50477831162879       -2.02715887650150       -0.25459492717442
H           -4.72467679633315        2.91490144922603       -0.17847590655818
H           -3.92651694430176        2.93628729100509        2.75505781097795
H           -4.97631110732303        1.73761644031006        1.99182262497290
H           -5.49197307065449        3.42208068870745        2.10375345139247
H           -2.81912459841442        4.74407859792067        1.32517552116625
H           -3.18543743054148        4.83245173692839       -0.40612237306715
H           -4.44187524475536        5.17010413530430        0.77672647454251
H           -0.79137654258931        2.97983968979947        2.83517762318595
