72
 energy: 24.043057606721 xtb: 6.6.1 (8d0f1dd)
N           -1.71149381729644        3.03515660214749        2.31247859563430
C           -1.67876378702092        2.27643065711596        1.31265345054362
C           -2.81871388542140        2.12374944950730        0.34181114290763
C           -3.33887676234518        0.69645297111230        0.40087718870604
C           -4.23381979086996        0.24171040479286       -0.56985082509196
C           -4.74924591675190       -1.03950148146375       -0.53232900088598
O           -5.62938218775283       -1.55923994732439       -1.43494192363168
C           -6.13706512586528       -0.72440922795969       -2.44496311741529
C           -4.36606064069514       -1.91623169319604        0.50726171698461
O           -4.92477561501264       -3.15761850301126        0.45913739015007
C           -4.62941847976594       -4.06562540947055        1.48859891011130
C           -3.48487427251249       -1.46341800205530        1.47071881244110
C           -2.97831610824011       -0.17011676370149        1.41566359687385
C           -2.22447262081413        2.42350550501828       -1.06078893994614
C           -1.34667237684928        1.31062940421075       -1.66346847408880
C           -0.00996472949294        1.19114670497526       -1.03675908448161
N            0.58905918318860        0.01694390109418       -0.67218895788595
C            1.99387855726756       -0.01177712186504       -0.35441520775738
C            2.89269261805068       -0.35099427766013       -1.56421735162278
C            4.33231628531527       -0.37755376395247       -1.15811184126640
C            5.04130701265402        0.80602162046351       -1.04977198814103
C            6.37304671453545        0.78113703902875       -0.67739624102586
C            7.00792817797170       -0.42037364215312       -0.36077259075006
O            8.31821035079214       -0.52165927960988       -0.00902654254373
C            9.09540430069698        0.64556280194590        0.10957056892716
C            6.27084057990144       -1.61687538371945       -0.35249972802791
O            6.89698796861836       -2.94079527580800        2.81065556683582
C            6.88502762421043       -4.11528034881155        2.50363640271814
C            4.97144884252487       -1.57048127955393       -0.81364611452223
C           -0.10743817694323       -1.23552228676455       -0.77536249341813
C           -4.01788807910637        3.07770770702539        0.61955054140588
C           -4.68772132795466        2.76596996463691        1.95686647160457
C           -3.64060020230191        4.55690207649456        0.57534351775139
H           -4.53347132619482        0.90802887425473       -1.36204989598722
H           -6.65923994874419        0.14532137183385       -2.03109496851351
H           -6.84738368038642       -1.33562020997378       -3.00050284882405
H           -5.34804258245128       -0.38461698857882       -3.12447410615372
H           -4.94695161315073       -3.68673354091322        2.46517295500027
H           -5.19496758222740       -4.96582239220310        1.25230601941140
H           -3.56000331455044       -4.30404312517074        1.53178344373949
H           -3.18332602650376       -2.10472555500316        2.28375473120191
H           -2.30836342919404        0.15585301530917        2.19589799429864
H           -3.04718697940405        2.61159993926291       -1.75394143343604
H           -1.62784276348771        3.33473692640736       -0.99688660468622
H           -1.88925649979214        0.36831357773789       -1.62288287615973
H           -1.21479206855465        1.56577591088718       -2.72682906914812
H           -0.79732026164599        1.68714934743093        0.99850628469279
H            0.60272845023759        2.07274254089953       -0.96457724654279
H            2.17171638599680       -0.74777920391544        0.44260156662938
H            2.27766628113526        0.97200346120338        0.03858283754410
H            2.74721836654029        0.42674074235983       -2.31883780605892
H            2.59796351148895       -1.32538987128990       -1.96596829736962
H            4.55750062047800        1.75207887870952       -1.25986896060870
H            6.89100103999105        1.72425571120466       -0.60068584302072
H            8.76007261513153        1.24980202016406        0.95618808165940
H            9.06865369272690        1.28675540205842       -0.77906667529032
H           10.11686772935482        0.31466373147222        0.29564396068078
H            7.73557927479910       -4.73689571475518        2.14852734726242
H            5.94261211938287       -4.67118975771998        2.54822658822208
H            6.70216223944339       -2.51293077607032        0.05558698457410
H            4.40307901602162       -2.49273102204196       -0.82446246913790
H           -0.29586301231074       -1.52550958945285       -1.81525609034099
H           -1.06764567894998       -1.17231584577530       -0.25578591061516
H            0.49091961933030       -2.01247486635068       -0.30473856349913
H           -4.75373495266286        2.89378780608072       -0.17371582773851
H           -3.99317363437461        2.94892627346323        2.76919803812572
H           -5.01550277499743        1.72991891864837        1.99766980549888
H           -5.55698392206701        3.40654999889938        2.09096372545896
H           -2.90411931986183        4.77323681085823        1.34261251159767
H           -3.24283694298391        4.84143885933967       -0.39461854140337
H           -4.52741704574205        5.16046244342988        0.76232082396385
H           -0.86497579587332        3.06800730171671        2.87632129315470
