72
 energy: 36.552404362435 xtb: 6.6.1 (8d0f1dd)
N           -1.67686425148242        2.98475533820102        2.30438047651668
C           -1.65530494890218        2.25224792293551        1.28539575877221
C           -2.80607747831544        2.11268704463799        0.32431571422166
C           -3.33557827415114        0.68876131057883        0.38737732290857
C           -4.24682341788976        0.24215609590929       -0.57106422486349
C           -4.76683645854639       -1.03745749378906       -0.53114728198953
O           -5.66193376288162       -1.54848213278239       -1.42407310986916
C           -6.18034953302294       -0.70452979738776       -2.42093513206875
C           -4.37095700591945       -1.91999026509712        0.49961666584869
O           -4.92898737905112       -3.16133605088525        0.45871339776666
C           -4.62699826123688       -4.06824470489945        1.48839347229006
C           -3.47284353094527       -1.47537242958893        1.44963669703225
C           -2.96261841355763       -0.18409809189845        1.39233100782188
C           -2.22232254018923        2.40326470817339       -1.08480671912638
C           -1.33295035734777        1.29056176854997       -1.67146297383357
C           -0.00823741789301        1.19175923341060       -1.01502279515397
N            0.60208983657376        0.01000089327570       -0.67187600462235
C            2.00396565830298       -0.01911856067071       -0.33446734366034
C            2.91911285930196       -0.38333729996827       -1.53631045366749
C            4.35415431994993       -0.40785687589360       -1.12292553521793
C            5.05409317295259        0.78545280670041       -1.03799407230361
C            6.38274044293072        0.77694210900716       -0.65561271450883
C            7.02156896696499       -0.42684483276398       -0.31324527146148
O            8.33742816696692       -0.50111194915294        0.05329607305931
C            9.08759584865963        0.68771928034790        0.13621216374589
C            6.31942540694807       -1.65861665544165       -0.33357826140629
O            6.72116355290213       -2.80647569972148        2.52043278339751
C            6.87320992337390       -3.98875466464102        2.31972921231365
C            4.98644042899718       -1.59091727635574       -0.71933304346443
C           -0.09689398695339       -1.24504034650657       -0.75242459141279
C           -3.99348630031759        3.07782574199134        0.61251189028882
C           -4.65592899136295        2.76799901168245        1.95399302644874
C           -3.59910758385821        4.55235751376492        0.57143984855505
H           -4.55511510591859        0.91385059679276       -1.35550899797010
H           -6.69077282120209        0.16560799108532       -1.99360148098602
H           -6.90251790981796       -1.30811033051147       -2.96943186694253
H           -5.40027914567204       -0.36437878009732       -3.11049822782260
H           -4.93754962715605       -3.68808293478243        2.46793995020780
H           -5.19389424444907       -4.96852572189761        1.25630877870800
H           -3.56067251424493       -4.31612586037578        1.50800045665145
H           -3.16222785698846       -2.12286196596923        2.25412289789783
H           -2.27977244663881        0.13584759170181        2.16375765623285
H           -3.04958828367532        2.57402493940129       -1.77684555595789
H           -1.63416852869906        3.32070919112393       -1.03262704589122
H           -1.87034955510063        0.34613791073618       -1.62454333567611
H           -1.18780229750150        1.52716243011544       -2.73872652438149
H           -0.77577993466480        1.67598302719116        0.93864391384414
H            0.61221357943458        2.07160892111346       -0.99182202068116
H            2.17455464860889       -0.73536698920511        0.48475092848752
H            2.28479890615033        0.96943788689383        0.03334189074081
H            2.80221646651187        0.39166442518504       -2.30411978099607
H            2.60785116584495       -1.36507131631898       -1.90393277238938
H            4.56614983248074        1.71912518965880       -1.23130105456439
H            6.89106517499747        1.73450592571927       -0.60713186995891
H            8.71931598489569        1.33450102885590        0.93478355429685
H            9.06210191370966        1.26516000839008       -0.78940136283392
H           10.10670956465428        0.38239727184900        0.36920630099549
H            7.80379238079966       -4.56083004602893        2.25680550015878
H            6.03306075880747       -4.62591083103425        2.44022739433166
H            6.71610876480205       -2.67717029718380        0.22913318694505
H            4.44208196853092       -2.52499242445254       -0.72272966273241
H           -0.28366170608199       -1.54516587961274       -1.78944432189422
H           -1.05809580301323       -1.17960860781589       -0.23541750934654
H            0.49851979410103       -2.02062114401920       -0.27374229825155
H           -4.73658462629210        2.90693257426704       -0.17676859183057
H           -3.95283864713465        2.94131205968702        2.76041262368016
H           -4.99184820981298        1.73465760684199        1.99402502845666
H           -5.51798521414246        3.41603174981018        2.09911720530183
H           -2.85280260758409        4.75556652351760        1.33222267860053
H           -3.20822451413381        4.83599889205393       -0.40151556345132
H           -4.47578063756251        5.16670399238104        0.77126658823561
H           -0.82139510339795        3.01364594566844        2.85225331924753
