25
 energy: 31.956716721918 xtb: 6.6.1 (8d0f1dd)
C            3.69946925715028        3.02691352239360        0.17799555845172
N            2.32278181717724       -0.65878859355323       -0.03249626164117
C            2.36391866318924       -1.95424992539516       -0.00984829894286
N            1.11386125666941       -2.53358257251081        0.00285735797850
C            0.22653856979743       -1.50276050850598       -0.02285056696533
C            0.99862154512258       -0.34124769874438       -0.03561919548119
C            0.33061996377952        0.93524806585189       -0.05124510626864
O            0.83697366202644        2.03294492865988       -0.05558063536656
N           -1.07073003414103        0.81446895019805       -0.04096534101307
C           -1.83423486505175        2.05766493057256       -0.02727842190643
C           -1.83366711731695       -0.33197431480280       -0.06183595977706
O           -3.04488385638295       -0.29017525226893       -0.08281900363985
N           -1.13798552986219       -1.54471944517153       -0.05493128370915
C           -1.91403182992070       -2.77546340556269       -0.07732941685594
H            4.14371845144938        3.21421463348370        1.12356348826466
H            4.21588523904849        3.08272529815535       -0.74672270115159
H            2.67252379689335        2.79343924216653        0.13288481974030
H            3.27034126698155       -2.52769050689671        0.01918467238123
H           -1.14051195713845        2.89011364114346       -0.01218319824023
H           -2.45236082602725        2.12130741187490       -0.91799846058526
H           -2.47777999756039        2.08808051239137        0.84814487913376
H           -1.69692439027964       -3.37248102346098        0.81159615174414
H           -1.67269108461638       -3.35524565151164       -0.97066286930899
H           -2.97602712585129       -2.52523656284831       -0.08942143188496
H            0.93292040533314       -3.52710324015572        0.00795426979265
