25
 energy: 41.674777071343 xtb: 6.6.1 (8d0f1dd)
C            3.27873224528184        1.89101713984799        0.12302310490274
N            2.42049999142953       -0.16018141305248        0.03563804437100
C            2.60405499388724       -1.45620461502561        0.06884824304401
N            1.42079414394486       -2.16738462434187        0.02876498929311
C            0.41926027932057       -1.24048579134226       -0.01443864171548
C            1.04592145838151        0.00829311512170       -0.00101012412155
C            0.22719301942950        1.20054742521881       -0.04005538558761
O            0.58093145280884        2.35547912667406       -0.09844240288738
N           -1.16103840564092        0.92870911368703       -0.04403527905783
C           -2.04940666044871        2.09009614127620       -0.04193689522237
C           -1.76999265172916       -0.28660201118267       -0.06142308469215
O           -2.97742703681155       -0.38862555823265       -0.08273998830739
N           -0.94168424264313       -1.42071328370385       -0.05354653245326
C           -1.65561331062558       -2.67801697463704       -0.07160764075484
H            3.73407241151507        1.98559295463449        1.06530480767739
H            3.92314062991773        1.85106184980036       -0.71908800927634
H            2.32459292160209        2.33392292510381        0.02033586853481
H            3.54693938798806       -1.98196193111968        0.05851073664806
H           -1.43130175503419        2.98096175402359       -0.02457968693680
H           -2.66803930854300        2.10267528423751       -0.93663952648171
H           -2.67356191680741        2.08192790346393        0.84668357648697
H           -1.46142630468902       -3.27197163865563        0.82191641421250
H           -1.43376080440884       -3.25838115834882       -0.96744315344759
H           -2.71722556212830       -2.40824685639687       -0.08595977761522
H            1.30855802060822       -3.17003944013168        0.02537015898173
