25
 energy: 30.946522888288 xtb: 6.6.1 (8d0f1dd)
C            3.74944818183931        3.12218255039461        0.17494667432514
N            2.31112666714363       -0.70076377570157       -0.03396709993945
C            2.34095592131191       -1.99615867862938       -0.00664663658013
N            1.08278495014567       -2.55874740868763        0.00191764345403
C            0.20876425069268       -1.51805629815520       -0.02213928242156
C            0.98664193664461       -0.36522368828265       -0.03296888876513
C            0.33046689513177        0.91681561893898       -0.03468357530480
O            0.85120787399859        2.00560638762115       -0.03218173565533
N           -1.07216035528742        0.80864707553150       -0.03529140768258
C           -1.83798456268808        2.05130961014533       -0.03085327544605
C           -1.84231054757886       -0.33273789005377       -0.05874913872506
O           -3.05273264527972       -0.29610223047390       -0.08283408657514
N           -1.15283238911025       -1.54590711411966       -0.05331518724501
C           -1.91198378577515       -2.78460745541247       -0.07742056151040
H            4.19700876422529        3.30599057008723        1.12409316814000
H            4.30749139808413        3.13791415593104       -0.73181765379688
H            2.73276306649424        2.83478139403958        0.12168987923268
H            3.24324856711177       -2.57643956188885        0.01396709159110
H           -1.14556769115420        2.88741123669360       -0.01183902086653
H           -2.45705118342859        2.11120233953357       -0.92288368721368
H           -2.50006059283142        2.08299179580193        0.83429092845989
H           -1.67675123087863       -3.37135254293623        0.81184837198804
H           -1.65115724973806       -3.34991936453186       -0.97335431039826
H           -2.97214436204176       -2.53963949742640       -0.08985804397695
H            0.88870348141946       -3.54784564015683        0.00069749258180
