25
 energy: -42.497056512342 xtb: 6.6.1 (8d0f1dd)
C            3.17850936499849        1.11760535458821        0.12576523327369
N            2.24291983422682        0.02462909775769        0.08860306277346
C            2.58347380886101       -1.27069024827505        0.11401614721372
N            1.37352776644159       -1.93790552343661        0.03081628334219
C            0.33065997518960       -1.06424963679457       -0.00641803869055
C            0.87116869615577        0.20338467415699        0.01244341313325
C            0.05585099553251        1.38906133627607        0.00082843932082
O            0.41786127853879        2.54823228474658        0.02004232608664
N           -1.31306449126494        1.07149450620094       -0.03527756233546
C           -2.27027218941264        2.17457599259174       -0.07361310925341
C           -1.87425629487132       -0.18794452939664       -0.05668656068325
O           -3.07454762964647       -0.34255845987966       -0.09381831986717
N           -1.01268242360242       -1.28253680805142       -0.02951059082797
C           -1.58601853159598       -2.61325954776311       -0.05760490477486
H            3.66009662887190        1.16662454707817        1.10247925291240
H            3.94820369063414        0.96221164777230       -0.63058387670688
H            2.66640278401626        2.05920689809252       -0.06896548304034
H            5.44622903905095       -1.62975723278251       -0.41443037876641
H           -1.71164327177896        3.10735021213857       -0.05369808439327
H           -2.86936538572914        2.11149347903498       -0.98228699879853
H           -2.94087775564459        2.11892086543073        0.78433041156351
H           -1.29600879321835       -3.16735340208185        0.83621112710415
H           -1.26151735526961       -3.15484165800648       -0.94926437018644
H           -2.67190828170930       -2.50120073324641       -0.07529869489955
H            1.25471518344122       -2.93556157381568        0.08911744096163
