25
 energy: 0.000000000000 xtb: 6.6.1 (8d0f1dd)
C            3.23720163006194        1.16630919979326        0.08434469647475
N            2.29877817382611        0.07527477071623        0.03981603040599
C            2.58028210190900       -1.21425402444508        0.03006176031096
N            1.43813958087363       -1.93419271955128        0.00098261760884
C            0.39035688448383       -1.05887472636071       -0.00790371836672
C            0.93510056364412        0.21347819449412        0.01709077491437
C            0.09450143893243        1.40504303904423       -0.00410947031874
O            0.49712751527797        2.54126714362870       -0.00342325688240
N           -1.25076640035757        1.06271879480407       -0.03085478223738
C           -2.21907211982101        2.15522099834493       -0.05001256985998
C           -1.81739487048744       -0.20012725993278       -0.04692818574614
O           -2.99983886758376       -0.37846417018721       -0.07008878229737
N           -0.92618586207120       -1.30210215599479       -0.03682761578324
C           -1.46982264913417       -2.64643102187190       -0.06029820460571
H            3.71247264356769        1.21471455160235        1.06488849150277
H            4.00791497605742        1.03430808813993       -0.67357694370751
H            2.69910007168542        2.09770118228144       -0.09130154882931
H            3.56654120610678       -1.63682992603973        0.04233140067262
H           -1.67107961066214        3.09322851271934       -0.02552706933167
H           -2.82428953597071        2.09428624779827       -0.95318082946668
H           -2.87644029173232        2.07745725625962        0.81450067533302
H           -1.17061996399332       -3.19584890659852        0.83242232437030
H           -1.14560257411436       -3.17511610292205       -0.95688275822323
H           -2.55549792440841       -2.55659984320617       -0.07459039797972
H            1.38130855184625       -2.94313852034425       -0.01389874181052
25
 energy: -0.915789368214 xtb: 6.6.1 (8d0f1dd)
C            3.23365341109949        1.16953673008541        0.08959624900009
N            2.31672882206008        0.07958633458958        0.04085897893554
C            2.66251879754590       -1.24399605196822        0.02770091417322
N            1.45855075133653       -1.94592890444797        0.00455599296629
C            0.40437620423242       -1.06754906886021       -0.00350299602797
C            0.93273125505678        0.20984942346151        0.02002170552171
C            0.09395453588813        1.38801506202227       -0.00128467260460
O            0.48808554199463        2.55433601633136       -0.00096835475232
N           -1.27139276187188        1.05374334034738       -0.03050818628732
C           -2.23326867104971        2.15428545223302       -0.05332728733759
C           -1.83273961521699       -0.19729608240070       -0.04696296647861
O           -3.03061600912540       -0.37595717330830       -0.07333424576514
N           -0.93876621651369       -1.30075254489114       -0.03378050459319
C           -1.50068547452918       -2.63435409051282       -0.05850725775975
H            3.70443648274085        1.21069055657832        1.07423350096758
H            4.00027871919642        1.02539716038317       -0.67133858750003
H            2.68405445205233        2.09130653886812       -0.09010741845318
H            3.75382613304254       -1.62374338965904        0.01693972299981
H           -1.67706779392070        3.08924033239425       -0.02961444705324
H           -2.84065814038249        2.10305072880000       -0.95717413665567
H           -2.89619756892525        2.08969618415938        0.80957963050369
H           -1.20594077485197       -3.18913831334182        0.83353288196486
H           -1.18025530560433       -3.16738460939252       -0.95507828151152
H           -2.58697830744367       -2.53577394223005       -0.07324513974100
H            1.37358620112537       -2.94783108706895       -0.01125119836439
25
 energy: 12.097380291150 xtb: 6.6.1 (8d0f1dd)
C            3.22640516995929        1.16566283339087        0.09546687149095
N            2.32582060512645        0.07241320967575        0.04000220685049
C            2.74394494326595       -1.27235870265463        0.02640580541897
N            1.48448034927829       -1.95550912946610        0.00648997640161
C            0.42098252665949       -1.08193685774919        0.00075449708483
C            0.92929336851953        0.20074596134682        0.02315891484640
C            0.09404133602082        1.36579281692776        0.00216144258131
O            0.46768651294465        2.54704651950065        0.00265551884157
N           -1.29126806643776        1.04874798387359       -0.02959011023203
C           -2.24687894194282        2.15673189924621       -0.05741555769369
C           -1.83818155821247       -0.19410931362905       -0.04627331297950
O           -3.04121606253724       -0.37640847202187       -0.07669216116412
N           -0.94425987507790       -1.29933636880617       -0.02936103890585
C           -1.53608225313394       -2.62019069560394       -0.05565770963429
H            3.69399019586027        1.20922049280263        1.08288071518979
H            3.99491509289694        1.01941025765981       -0.66399689885428
H            2.67217618566253        2.08276521615325       -0.08831586895537
H            3.95514081932595       -1.58015705987229       -0.01519940125102
H           -1.68546208452752        3.08948578463619       -0.03500976966644
H           -2.85667427536809        2.11107063454607       -0.96138789655927
H           -2.91658853848094        2.10287548617673        0.80254281436120
H           -1.25525163340921       -3.18446815230138        0.83561381030677
H           -1.22927650466735       -3.16113654610229       -0.95300829323103
H           -2.62260016814050       -2.50364500754999       -0.07050969319585
H            1.36707752435180       -2.95368418800746       -0.00868096490389
25
 energy: 23.584323967569 xtb: 6.6.1 (8d0f1dd)
C            3.22339638470943        1.16376927941189        0.09820489962134
N            2.32946653995954        0.06505952035991        0.03664287139135
C            2.78166432273877       -1.28493332034322        0.02973388506556
N            1.49769135303958       -1.96003440553450        0.00192388023563
C            0.42889131892472       -1.09201147812417       -0.00097854325849
C            0.92965883233196        0.19501143327729        0.02225751061114
C            0.09572081431152        1.35850145788601        0.00307078538090
O            0.45593962657624        2.54125416847441        0.00559627106308
N           -1.29897462373573        1.05000009960987       -0.02865622062174
C           -2.25438483096677        2.15781445614694       -0.05914377871829
C           -1.83843801133349       -0.19358719691764       -0.04574014922151
O           -3.04139068270058       -0.37944881151832       -0.07685812127122
N           -0.94422282070053       -1.30027040991599       -0.02770323390417
C           -1.55708879710069       -2.61350191342542       -0.05334138658120
H            3.68546804081060        1.21138988336156        1.08837645301249
H            3.99600013011129        1.02083377296736       -0.65767955955849
H            2.66752273000689        2.07964235441600       -0.08897841789092
H            4.07260128822962       -1.55819976254121       -0.02761387222190
H           -1.69374835744899        3.09050389309034       -0.03786716904425
H           -2.86484614289447        2.11098711236761       -0.96310546766330
H           -2.92677446945266        2.10628628778868        0.79926384999169
H           -1.28747652854930       -3.18285643135210        0.83780870011332
H           -1.26306398410642       -3.15924059823123       -0.95178631934411
H           -2.64286892196454       -2.48049626392142       -0.06701781694094
H            1.36147145714024       -2.95744452516067       -0.00937515409868
25
 energy: 30.628815060429 xtb: 6.6.1 (8d0f1dd)
C            3.22174230849647        1.16216245188352        0.09878863278898
N            2.32851927789155        0.06116718635920        0.03557408225827
C            2.78882310929576       -1.28861171990636        0.03970113578709
N            1.49660405243616       -1.96050176570000       -0.00146570750537
C            0.42740757023420       -1.09444903460774       -0.00299830619094
C            0.92882050966217        0.19400295153361        0.02189289866350
C            0.09658262505135        1.35996363532459        0.00281287635506
O            0.45095073284721        2.54074380575617        0.00661678087184
N           -1.30119070270624        1.05279981112864       -0.02828034546657
C           -2.25712841035413        2.15893352841673       -0.05945690280878
C           -1.84030035506356       -0.19247300280152       -0.04582159513532
O           -3.04263766037814       -0.37824901455450       -0.07691575734654
N           -0.94583636605290       -1.30020110979936       -0.02770055827965
C           -1.56244290022894       -2.61267129472898       -0.05279134865425
H            3.68083072226525        1.21148396575109        1.08997921067831
H            3.99576873497216        1.01944182908821       -0.65535089609607
H            2.66643755765841        2.07836395231398       -0.09065021770505
H            4.13562543749693       -1.55704839431152       -0.03576067480058
H           -1.69765897813804        3.09189611176323       -0.03851913178930
H           -2.86759871907410        2.11053328546363       -0.96345953259973
H           -2.92962006850941        2.10682957977639        0.79882795286445
H           -1.29455799465807       -3.18173122530523        0.83825833823200
H           -1.27077825500873       -3.15846558077505       -0.95117098556968
H           -2.64760774164855       -2.47749797423123       -0.06604485931653
H            1.35146018144943       -2.95739337566547       -0.00903119308787
25
 energy: 46.094718186630 xtb: 6.6.1 (8d0f1dd)
C            3.21746560632032        1.15812338189832        0.09945048373620
N            2.32186920554011        0.05481858336907        0.03888542898814
C            2.78516096164626       -1.29119483280922        0.08620696014210
N            1.48426709051017       -1.95962147960834       -0.00965534065825
C            0.41691741449592       -1.09500794623968       -0.00934415233347
C            0.92412003430627        0.19439631411193        0.02137529089091
C            0.09671235874957        1.36692927731110       -0.00000317948086
O            0.44139963827992        2.54278308298298        0.00654539804717
N           -1.30490066365775        1.05806093045480       -0.02819564691991
C           -2.26118190574696        2.16133413444267       -0.05950547666380
C           -1.84723406714313       -0.19010700878179       -0.04648720967306
O           -3.04796174793746       -0.37411963615047       -0.07625035821254
N           -0.95207448472282       -1.29878165221751       -0.03001158246519
C           -1.56834891604044       -2.61295773918471       -0.05286189636176
H            3.67342910102491        1.21052998188033        1.09078711592445
H            3.99226760453536        1.01111660433524       -0.65253237365813
H            2.66542702761037        2.07592319378160       -0.09516448999990
H            4.28512591633413       -1.56743793776227       -0.06657199273777
H           -1.70340617163304        3.09475917573590       -0.03905345056141
H           -2.87186339539071        2.11130158230837       -0.96338771699580
H           -2.93313344322896        2.10850124813411        0.79911513280322
H           -1.29904906847459       -3.17872772784820        0.83854497758588
H           -1.27641234011599       -3.15731310472660       -0.95058702992123
H           -2.65272271100948       -2.47906054982813       -0.06531998447195
H            1.32634162368428       -2.95521927341749       -0.00894501085581
25
 energy: 56.549849974051 xtb: 6.6.1 (8d0f1dd)
C            3.20904052386276        1.14965741761180        0.10137943015339
N            2.30812704620890        0.04325897745211        0.05502712598180
C            2.77495973484020       -1.29493744523816        0.19143844942525
N            1.46241738779436       -1.95780497285370       -0.01944193131757
C            0.39819654571319       -1.09556928660409       -0.02140952893667
C            0.91388991645663        0.19395829692260        0.01867337497531
C            0.09527034831183        1.37479378520011       -0.00843460673384
O            0.42709644108616        2.54348188457914        0.00447457358376
N           -1.31206237000766        1.06519087563440       -0.02905685240156
C           -2.26697858710987        2.16594415198639       -0.05970212644300
C           -1.85903912657696       -0.18626278580911       -0.04810676747937
O           -3.05766691875457       -0.36713154993998       -0.07402265761425
N           -0.96502473566507       -1.29570047129653       -0.03660214794559
C           -1.57919326998063       -2.61270066078669       -0.05329081824218
H            3.66360210718291        1.20936336076192        1.09098568112640
H            3.98498627053987        0.99319172657896       -0.64757196553431
H            2.66399513115005        2.07069146607020       -0.10260180266103
H            4.54083121253336       -1.57344743292016       -0.14385594966442
H           -1.71012567240603        3.09929454734415       -0.04011041465124
H           -2.87782598416755        2.11391744914499       -0.96347352923394
H           -2.93795656224421        2.11238951810826        0.79949138507462
H           -1.30629506195872       -3.17325717995600        0.83895407037263
H           -1.28583761605593       -3.15611352117725       -0.94944003106728
H           -2.66261405369253       -2.48143572296263       -0.06413673867240
H            1.29042196087577       -2.95174382567873       -0.01213232594720
25
 energy: 60.688569801670 xtb: 6.6.1 (8d0f1dd)
C            3.19693747246021        1.13566578159797        0.10710911119316
N            2.28534630063190        0.02570022391661        0.06355953079320
C            2.74172213078469       -1.29200807028257        0.22795010968635
N            1.42781852745902       -1.95160925884261       -0.01625369912947
C            0.36909242255351       -1.09302553877641       -0.02585860060118
C            0.89898987934602        0.19362813115058        0.01619892183119
C            0.09042187746871        1.38449894510922       -0.00834883661728
O            0.41366928683431        2.54094828940821        0.00430747241933
N           -1.31804856581860        1.07318348477879       -0.02957387695601
C           -2.27134401592665        2.17164336232781       -0.06205766889673
C           -1.87292145065599       -0.18286633588256       -0.05043412861330
O           -3.06848596553900       -0.35760248493283       -0.07628833046410
N           -0.98432815718338       -1.29077900770862       -0.03744503043877
C           -1.58982328716332       -2.61287346397132       -0.05348414065210
H            3.65679399723217        1.19581545749299        1.09153230824294
H            3.97179454541679        0.97636756172871       -0.64180562440786
H            2.66261521101384        2.06378574278372       -0.09844104971691
H            4.85920467975176       -1.57655602860905       -0.20577898371474
H           -1.71549514345243        3.10494999432860       -0.04216097466966
H           -2.88064144313081        2.11736221913511       -0.96654403906593
H           -2.94208607171580        2.11653649465779        0.79688448804947
H           -1.31144563952098       -3.16886481358663        0.83896751480578
H           -1.29004485688227       -3.15289123452934       -0.94831877387990
H           -2.67228154245790       -2.48684740649722       -0.06521031449888
H            1.25475447643046       -2.94513344262496        0.00852851144870
25
 energy: 53.666396852168 xtb: 6.6.1 (8d0f1dd)
C            3.18425004857417        1.11688724728038        0.11622886196151
N            2.24580992254628        0.00276190874823        0.07641546329788
C            2.60825298846621       -1.26014102283353        0.15389194134541
N            1.36224002467986       -1.93523145295861        0.01493710146576
C            0.32073650613410       -1.07646139714707       -0.01877794294523
C            0.88016984863217        0.19711258653189        0.01022901657162
C            0.07612430068778        1.39710843704840       -0.00103807881224
O            0.41561980714242        2.53611354598078        0.00417234645573
N           -1.31322124607010        1.07556904490507       -0.03155471992365
C           -2.26862639508002        2.17375358328855       -0.06494922783450
C           -1.88377749236480       -0.18576798515369       -0.05362700211212
O           -3.07506017222804       -0.34880040638873       -0.08090670611203
N           -1.01056890026681       -1.28225097253076       -0.03453957406092
C           -1.59207673271238       -2.61373181681022       -0.05473783014988
H            3.66043561222878        1.17637610978605        1.08971178002412
H            3.95697184983037        0.96486697254397       -0.63689117082987
H            2.66390132092632        2.05565884573295       -0.08533844402461
H            5.21921246994208       -1.60274787569239       -0.21990614077171
H           -1.71417607284280        3.10810463114864       -0.04363702695143
H           -2.87574061489335        2.11954283181396       -0.96985735669167
H           -2.93927848900349        2.11708166353482        0.79335466723747
H           -1.30492496603678       -3.16766650619657        0.83808509543838
H           -1.28035557054658       -3.15061578734099       -0.94909296231794
H           -2.67432890198085       -2.49393665305515       -0.06886181184975
H            1.25062552217170       -2.93455693006397        0.04372361773697
25
 energy: 52.905675207534 xtb: 6.6.1 (8d0f1dd)
C            3.17698559026966        1.10958723721532        0.10529483231090
N            2.22777450825834        0.00522062945938        0.06695806392479
C            2.54274604669260       -1.26116516815262        0.11852316092615
N            1.33384555171030       -1.92860861033401        0.02031690995676
C            0.30021997586893       -1.05614438679853       -0.01698204571848
C            0.86248004934542        0.21036040197540        0.00173346675979
C            0.05618186404364        1.40263687449234       -0.00428357493942
O            0.41253350577277        2.55205720099058        0.00558899214366
N           -1.32185522340787        1.07699738034767       -0.03214449085362
C           -2.27366979192273        2.17947385992595       -0.05954794740996
C           -1.89770533860227       -0.18143625439683       -0.05171408673878
O           -3.09366304810037       -0.33607256580693       -0.07923521226263
N           -1.03112084735974       -1.27180898005018       -0.03611839342816
C           -1.59032598352442       -2.61155206173532       -0.05786912809119
H            3.65037040852615        1.16078059968164        1.08253997767629
H            3.94993215101804        0.95129034047704       -0.64658825522152
H            2.66075293642809        2.04957957644405       -0.09267460959576
H            5.45497332747762       -1.66655751691175       -0.13395925403767
H           -1.71362127296668        3.11167921405745       -0.03773646045155
H           -2.87975808623949        2.12679294161195       -0.96452867268968
H           -2.94015990950123        2.12072699907915        0.80125856078347
H           -1.29054573532507       -3.16491505612794        0.83308572762596
H           -1.26650311801250       -3.14519939381356       -0.95188956009898
H           -2.67453008779035       -2.51198268762323       -0.07114149479202
H            1.25687719527738       -2.93271197183503        0.02814739036897
25
 energy: 52.383349204079 xtb: 6.6.1 (8d0f1dd)
C            3.17535424902357        1.11419670996586        0.09968347077052
N            2.22418512608086        0.02308782212975        0.05669871942775
C            2.52357930616222       -1.27143143932646        0.08031600256414
N            1.32479958538122       -1.92639405057752        0.01793481684400
C            0.29385288650097       -1.04274514606614       -0.00915664809226
C            0.85124568638554        0.22005121362464        0.00898049800152
C            0.04057554605241        1.40052182112039        0.00107329285500
O            0.41457729926862        2.55503818886511        0.00775169260859
N           -1.33047846994835        1.07761144074260       -0.03094245109785
C           -2.27874707895468        2.18326147787208       -0.06087121461039
C           -1.90593042422170       -0.17757988391883       -0.04877092871456
O           -3.10554790714683       -0.32972271499375       -0.07934235903927
N           -1.04315387184141       -1.26750385541139       -0.03253476024355
C           -1.58954321494976       -2.61026956754645       -0.05599723825658
H            3.65049613796321        1.15668516601959        1.07931486938496
H            3.94638295307537        0.95570268197147       -0.65310121294441
H            2.65887610880504        2.05385710188981       -0.08833039174042
H            5.55829507880208       -1.73372426169636       -0.07996075131202
H           -1.71354048873631        3.11277498869893       -0.03850174807614
H           -2.88152963423528        2.12947365870638       -0.96742339063231
H           -2.94462426905986        2.12378244814014        0.79965915651797
H           -1.28510023718121       -3.16374785123205        0.83456467426449
H           -1.25902834627912       -3.14225536951790       -0.95004471098026
H           -2.67486830708235       -2.52006505828204       -0.07067696428643
H            1.26208695407200       -2.93157691900585        0.00671147293477
25
 energy: 52.301442382887 xtb: 6.6.1 (8d0f1dd)
C            3.17562298744180        1.11782224996927        0.09672608168037
N            2.22429666019275        0.03555330208117        0.05319983669857
C            2.52325462691451       -1.26997149242381        0.05674170827285
N            1.32730164329886       -1.92359145764803        0.01607066418816
C            0.29427269745953       -1.03962480646498       -0.00307174236098
C            0.84849757932021        0.22158878528582        0.01791679784088
C            0.03416651239250        1.39916094731987        0.00115345552894
O            0.41689511822938        2.55385603958239        0.00540305554935
N           -1.33235870378570        1.07773224696747       -0.03163607128110
C           -2.28022251197232        2.18381428584859       -0.05971241796241
C           -1.90602217784295       -0.17747304929115       -0.04901996315215
O           -3.10633103046099       -0.33062674521558       -0.07983520768184
N           -1.04488526718261       -1.26888359668909       -0.03123097180447
C           -1.58967915418489       -2.61037236117851       -0.05648120031306
H            3.64889851146041        1.16095364503950        1.07852242443359
H            3.94870081132900        0.95549050645059       -0.65323923012394
H            2.66061869737992        2.05762096941136       -0.09361046783500
H            5.56018412368279       -1.76554234266243       -0.04948757715861
H           -1.71323110726514        3.11209602899904       -0.03745114932412
H           -2.88390200010924        2.13049750268872       -0.96535876581590
H           -2.94446207903199        2.12376902976508        0.80175439813333
H           -1.28604827764033       -3.16475814342639        0.83374314966511
H           -1.25983554151884       -3.14192584086492       -0.95125399623443
H           -2.67502579457280       -2.51925750642144       -0.07157284995846
H            1.27150834440238       -2.92889959495054       -0.00123606483739
25
 energy: 52.226561328481 xtb: 6.6.1 (8d0f1dd)
C            3.17464800285166        1.11898891527134        0.09580767828979
N            2.22337566768715        0.04185089513656        0.04906261867029
C            2.53203521062774       -1.26669552314589        0.04094109019724
N            1.33180381849675       -1.92195224635313        0.01154514887159
C            0.29532331648476       -1.04056075422458        0.00154633602842
C            0.84734514723245        0.22076044564452        0.02648778003609
C            0.03181436700140        1.39987849875972        0.00462092851719
O            0.41647688041922        2.55351372422315        0.00634938019922
N           -1.33320471940942        1.07929502403319       -0.03062977944091
C           -2.28125090894153        2.18466762258747       -0.06115998178515
C           -1.90575416207981       -0.17690307689559       -0.04819183598151
O           -3.10606943805307       -0.33065324036800       -0.08069528023358
N           -1.04476368443374       -1.27031299130797       -0.02891064307263
C           -1.58992065081367       -2.61071588573426       -0.05544516537681
H            3.64736624317979        1.16004485580278        1.07854883119247
H            3.94850834016777        0.95625161229559       -0.65305853339473
H            2.66197736453131        2.06055731985829       -0.09271298178286
H            5.55409328561290       -1.78342939414506       -0.03918224139358
H           -1.71407207526871        3.11264513082796       -0.03875717605329
H           -2.88374314663587        2.13072687667109       -0.96751948741815
H           -2.94651437610971        2.12497253707356        0.79957226831163
H           -1.28613536935588       -3.16517408375332        0.83423079811766
H           -1.26005912755236       -3.14142170273132       -0.95047208603711
H           -2.67532200625265       -2.52029472955743       -0.07062626016747
H            1.27425668854977       -2.92701122779667       -0.00431751014653
25
 energy: 52.164053538892 xtb: 6.6.1 (8d0f1dd)
C            3.17412931786493        1.11988568873150        0.09545406232676
N            2.22137789550247        0.04383058705121        0.04806928003136
C            2.53472978659701       -1.26150478090150        0.03466987725119
N            1.33465074291530       -1.92097469900675        0.01033992997856
C            0.29625571270576       -1.04217183760622        0.00348745542560
C            0.84730075205162        0.21992773823673        0.02935742504515
C            0.03208099147388        1.40061075329004        0.00328341440327
O            0.41694731156784        2.55315720529973        0.00473061800552
N           -1.33213808948200        1.07947252090388       -0.03137517843434
C           -2.28092853909104        2.18396519579843       -0.06032678799217
C           -1.90449641411260       -0.17759820484810       -0.04910778403356
O           -3.10449023505264       -0.33162144357476       -0.08102313281021
N           -1.04344091157700       -1.27116859904673       -0.02916261151378
C           -1.59036499720997       -2.61069077056496       -0.05586211561811
H            3.64619342014441        1.16267104069781        1.07861796955200
H            3.94928453491249        0.95618685424046       -0.65199646656965
H            2.66326884360101        2.06232203900447       -0.09488647969262
H            5.54437744748865       -1.79143537363025       -0.03241709114954
H           -1.71412943248996        3.11214550877509       -0.03792589487079
H           -2.88452975215893        2.13043750043788       -0.96595610667045
H           -2.94522707784121        2.12372253311964        0.80115033524138
H           -1.28766151525679       -3.16547098225335        0.83386923026348
H           -1.26148333626275       -3.14183243026232       -0.95095741089658
H           -2.67561071049244       -2.51846475467480       -0.07118924161738
H            1.27611892213816       -2.92637268704515       -0.00380939950786
25
 energy: 52.145844190190 xtb: 6.6.1 (8d0f1dd)
C            3.17384043604628        1.11984590212029        0.09553985931465
N            2.21973599170051        0.04367320749190        0.04777517460736
C            2.53676254076475       -1.25803021767154        0.03329626139881
N            1.33597763644317       -1.92051918440784        0.00923630119498
C            0.29660145427964       -1.04311948370046        0.00439400788990
C            0.84695693196316        0.22002026254255        0.03085209141559
C            0.03253388201634        1.40140077018226        0.00473906707577
O            0.41615416152259        2.55363857886002        0.00560370745600
N           -1.33219116160567        1.07978485945367       -0.03070279008023
C           -2.28109517608660        2.18405533974159       -0.06104089051294
C           -1.90453709084176       -0.17773167428240       -0.04851679732394
O           -3.10435806067225       -0.33159030489560       -0.08108231085263
N           -1.04287876398548       -1.27093443121981       -0.02886884469296
C           -1.59009909297929       -2.61072466023169       -0.05561976356592
H            3.64598314976489        1.16154979033705        1.07862667416503
H            3.94861131738433        0.95567000821792       -0.65215291619798
H            2.66354673505130        2.06267450859792       -0.09427430446684
H            5.54400372730732       -1.79555384557169       -0.03369843175337
H           -1.71451998489536        3.11244655645886       -0.03864964217400
H           -2.88407735008289        2.13036382198174       -0.96710793732184
H           -2.94614832445565        2.12439838759225        0.79997876438092
H           -1.28700884884960       -3.16555315260337        0.83394163824118
H           -1.26103608136022       -3.14167167451259       -0.95074732073071
H           -2.67535922736780       -2.51912726598724       -0.07077002646172
H            1.27481586687455       -2.92593749632180       -0.00371767485785
25
 energy: 52.149225012132 xtb: 6.6.1 (8d0f1dd)
C            3.17379282745699        1.12030947754974        0.09568817231003
N            2.21912233402811        0.04349400454756        0.04824116672517
C            2.53668661279132       -1.25628559936846        0.03460981970204
N            1.33632483938528       -1.92054626342611        0.00962530494816
C            0.29682186962164       -1.04339035055119        0.00400740576524
C            0.84664585554223        0.22041653995808        0.02993558734981
C            0.03285087963449        1.40142720419176        0.00390454352039
O            0.41599006364965        2.55389103526440        0.00507778959440
N           -1.33231710028068        1.07956679411798       -0.03112823461877
C           -2.28102680484738        2.18396253169085       -0.06069394781891
C           -1.90460933579482       -0.17790316917599       -0.04900759062269
O           -3.10441409921411       -0.33164197439015       -0.08108142397730
N           -1.04267533505186       -1.27065061731002       -0.02953391938171
C           -1.59009959555508       -2.61067103417736       -0.05570978826725
H            3.64576351868053        1.16176799553437        1.07871693056033
H            3.94837659723314        0.95572054526775       -0.65202228862470
H            2.66327676412853        2.06283734522305       -0.09430419561557
H            5.54532054555063       -1.79818103956656       -0.03451063099756
H           -1.71434574680485        3.11235831379442       -0.03823626202117
H           -2.88431763658434        2.13054192180817       -0.96656365338968
H           -2.94565895268388        2.12410230181129        0.80061529566330
H           -1.28705730179154       -3.16530839805288        0.83405137105838
H           -1.26101507094994       -3.14189091746284       -0.95070356317530
H           -2.67534190845796       -2.51898057021366       -0.07092025986654
H            1.27412084825013       -2.92591747489222       -0.00302373267282
25
 energy: 52.156500902948 xtb: 6.6.1 (8d0f1dd)
C            3.17402184142765        1.12086350143642        0.09566645680552
N            2.21901763627756        0.04386037687228        0.04889938067491
C            2.53618277982347       -1.25518115943430        0.03647240148824
N            1.33644141476209       -1.92061283068131        0.01017211264008
C            0.29703365607578       -1.04325734515955        0.00369307161005
C            0.84611473137207        0.22103153750345        0.02918545872503
C            0.03274602272410        1.40124888150430        0.00449402429800
O            0.41583136287513        2.55413503943771        0.00565346817567
N           -1.33278176900277        1.07939989675255       -0.03075865011004
C           -2.28121179183706        2.18403752258144       -0.06094779375062
C           -1.90471869730260       -0.17787727321082       -0.04845059430400
O           -3.10457314837029       -0.33170342848295       -0.08074714754795
N           -1.04262365034419       -1.27039267490953       -0.02961526128368
C           -1.58989003693083       -2.61067777701705       -0.05578798895971
H            3.64623633581555        1.16167727344590        1.07848273011437
H            3.94809973371581        0.95575079087028       -0.65238385343119
H            2.66322681567383        2.06307341139223       -0.09413709889402
H            5.54632668227803       -1.80150585601093       -0.03624051558646
H           -1.71437617173170        3.11235593870238       -0.03860145374607
H           -2.88408923282956        2.13039613641238       -0.96706154551343
H           -2.94613726255993        2.12446028600226        0.80013188639543
H           -1.28665571358270       -3.16542013426129        0.83388460827953
H           -1.26076637169739       -3.14170488247465       -0.95090411319300
H           -2.67515024492929       -2.51908556409116       -0.07086324146861
H            1.27390974623348       -2.92584306500806       -0.00320244527073
25
 energy: 52.156402902410 xtb: 6.6.1 (8d0f1dd)
C            3.17389702806481        1.12092764649838        0.09580439882989
N            2.21921804728648        0.04421484427764        0.04871532350181
C            2.53641763390516       -1.25543365520886        0.03696223217058
N            1.33652561211295       -1.92060080640766        0.01026693855384
C            0.29704583306164       -1.04320405281715        0.00320396895817
C            0.84601269803436        0.22094577392414        0.02852292873292
C            0.03261571450331        1.40118411001884        0.00362406178613
O            0.41587129744063        2.55402777753939        0.00512742847490
N           -1.33285699445574        1.07949136772510       -0.03127355804181
C           -2.28122224587157        2.18413616522085       -0.06060266955459
C           -1.90468042500232       -0.17773728103399       -0.04908425686947
O           -3.10457928582311       -0.33170480457053       -0.08095876670277
N           -1.04267536932410       -1.27053019381522       -0.02985175111452
C           -1.58994969860895       -2.61071618571371       -0.05569371192548
H            3.64593736237840        1.16172526626502        1.07874455680788
H            3.94816160094613        0.95590193560549       -0.65209727029985
H            2.66310289601806        2.06313432144245       -0.09404489540550
H            5.54633445983617       -1.80205003804822       -0.03619846996376
H           -1.71426506354209        3.11235361068020       -0.03811605834259
H           -2.88448235988665        2.13079257246439       -0.96647911774094
H           -2.94574881341304        2.12423570835453        0.80073784278419
H           -1.28679532717413       -3.16516088708218        0.83415456972586
H           -1.26074975077312       -3.14196624078550       -0.95062108775282
H           -2.67521560635203       -2.51913983272740       -0.07090585285357
H            1.27429542457498       -2.92579851963402       -0.00290288761122
