25
 energy: 0.000000000000 xtb: 6.6.1 (8d0f1dd)
C            3.23720163006194        1.16630919979326        0.08434469647475
N            2.29877817382611        0.07527477071623        0.03981603040599
C            2.58028210190900       -1.21425402444508        0.03006176031096
N            1.43813958087363       -1.93419271955128        0.00098261760884
C            0.39035688448383       -1.05887472636071       -0.00790371836672
C            0.93510056364412        0.21347819449412        0.01709077491437
C            0.09450143893243        1.40504303904423       -0.00410947031874
O            0.49712751527797        2.54126714362870       -0.00342325688240
N           -1.25076640035757        1.06271879480407       -0.03085478223738
C           -2.21907211982101        2.15522099834493       -0.05001256985998
C           -1.81739487048744       -0.20012725993278       -0.04692818574614
O           -2.99983886758376       -0.37846417018721       -0.07008878229737
N           -0.92618586207120       -1.30210215599479       -0.03682761578324
C           -1.46982264913417       -2.64643102187190       -0.06029820460571
H            3.71247264356769        1.21471455160235        1.06488849150277
H            4.00791497605742        1.03430808813993       -0.67357694370751
H            2.69910007168542        2.09770118228144       -0.09130154882931
H            3.56654120610678       -1.63682992603973        0.04233140067262
H           -1.67107961066214        3.09322851271934       -0.02552706933167
H           -2.82428953597071        2.09428624779827       -0.95318082946668
H           -2.87644029173232        2.07745725625962        0.81450067533302
H           -1.17061996399332       -3.19584890659852        0.83242232437030
H           -1.14560257411436       -3.17511610292205       -0.95688275822323
H           -2.55549792440841       -2.55659984320617       -0.07459039797972
H            1.38130855184625       -2.94313852034425       -0.01389874181052
25
 energy: -3.007743545343 xtb: 6.6.1 (8d0f1dd)
C            3.23672526774791        1.17223371578253        0.08932848446485
N            2.31594823510498        0.08382274748593        0.04012315503557
C            2.64825444367854       -1.24056920514312        0.02748897281254
N            1.45330145708012       -1.94507784829881        0.00374186392363
C            0.40418194405321       -1.06577480820794       -0.00426726895813
C            0.93336420333884        0.21231774950333        0.01918228334577
C            0.09642170600110        1.38906142000687       -0.00183104390674
O            0.49094619972587        2.55546926073417       -0.00151727099845
N           -1.26840112097959        1.05226122817127       -0.03051144776433
C           -2.23038660733502        2.15172191722912       -0.05284018532147
C           -1.82986523608418       -0.19883187544854       -0.04689769330045
O           -3.02754119701199       -0.37865967999722       -0.07281501264834
N           -0.93646057735908       -1.30129404915632       -0.03416111727572
C           -1.49527802624590       -2.63575853775293       -0.05865783548396
H            3.70883171244752        1.21448071190231        1.07366318945286
H            4.00359652473730        1.03050876204738       -0.67227664775272
H            2.68623796618859        2.09380125506691       -0.08947004946748
H            3.70757351673560       -1.63074696879805        0.02101289672033
H           -1.67298185460103        3.08580180937256       -0.02902628210701
H           -2.83750628426375        2.10052540260208       -0.95679068469541
H           -2.89267347233455        2.08676818554544        0.81044631625744
H           -1.20008865623924       -3.19030522404975        0.83349286114725
H           -1.17442489569118       -3.16871846670040       -0.95522614262321
H           -2.58126761937928       -2.53646198478291       -0.07335990957745
H            1.37370703862142       -2.94754691494190       -0.01179753513207
25
 energy: 2.861655257271 xtb: 6.6.1 (8d0f1dd)
C            3.23346568458556        1.17245231649176        0.09515955434200
N            2.32572410818099        0.08229136178760        0.03870489237252
C            2.71141191663316       -1.26255625713646        0.02480134145567
N            1.47450293738358       -1.95313584060547        0.00536054550672
C            0.42087930501209       -1.07823308039103       -0.00021173307674
C            0.93171556949918        0.20569741065566        0.02181184628329
C            0.09942761244717        1.36757352706389        0.00134694939754
O            0.47478738792110        2.54865029849929        0.00155515815425
N           -1.28416917440066        1.04454163655339       -0.02955076868499
C           -2.23994952197210        2.15048911101824       -0.05676464381865
C           -1.83158944487148       -0.19843931530676       -0.04601457657731
O           -3.03387904143924       -0.38312763073663       -0.07571980395884
N           -0.93879854513787       -1.30126109319361       -0.02978730480573
C           -1.52490248680861       -2.62329857184935       -0.05573539209449
H            3.70372830667489        1.21735970847890        1.08176814767470
H            4.00223103202885        1.03173134550653       -0.66575932661950
H            2.67635402958077        2.08874110532873       -0.08597354097597
H            3.84504120403886       -1.59607958382701       -0.00871376060164
H           -1.67572704193898        3.08132996938975       -0.03418624885069
H           -2.84905964550333        2.10520245350942       -0.96096885548833
H           -2.90857595056950        2.09645245439702        0.80376578967555
H           -1.24421181271350       -3.18727805986207        0.83589540184460
H           -1.21803159687542       -3.16426079262733       -0.95316330621411
H           -2.61064356986882       -2.50315352835555       -0.07063408168291
H            1.37248340604952       -2.95266034261689       -0.00995238710963
25
 energy: 6.442727974079 xtb: 6.6.1 (8d0f1dd)
C            3.23218081539005        1.17255063763748        0.09768543986663
N            2.32873637104907        0.07843040962497        0.03519592552829
C            2.73373289411955       -1.26940366320768        0.02507180902417
N            1.48571325011891       -1.95632023568308        0.00161066016222
C            0.42878295739789       -1.08670732843707       -0.00122741485257
C            0.93300539635927        0.20126487176505        0.02104936637873
C            0.10257183014766        1.36141345115834        0.00223300376641
O            0.46737145246567        2.54339235005512        0.00390326823314
N           -1.28807511080329        1.04416276110829       -0.02868697257319
C           -2.24331573591488        2.14971385091840       -0.05844615700152
C           -1.82855178699498       -0.19964352897365       -0.04529832426653
O           -3.03033482183716       -0.38806482600309       -0.07575354960102
N           -0.93572423263188       -1.30340413450975       -0.02787167806392
C           -1.53969595098773       -2.61872333241803       -0.05342893228150
H            3.69860926151448        1.22055465502331        1.08625828944873
H            4.00483068319327        1.03681627096818       -0.66021938295473
H            2.67357511084882        2.08802770482903       -0.08489150484325
H            3.89884413988933       -1.57618307027345       -0.01915280461766
H           -1.67895748594963        3.08003762391967       -0.03686016845282
H           -2.85245191842709        2.10312081541389       -0.96284546438802
H           -2.91396284375496        2.09760287207865        0.80082011721391
H           -1.26991209551694       -3.18755113858890        0.83815921885703
H           -1.24486546899360       -3.16424331032488       -0.95186707627743
H           -2.62446111583905       -2.48177916207049       -0.06742274844597
H            1.37456907309343       -2.95603594183829       -0.01098102371185
25
 energy: 7.153923438897 xtb: 6.6.1 (8d0f1dd)
C            3.23182141705230        1.17229013708182        0.09816944708073
N            2.32905530255643        0.07652857167120        0.03251019392871
C            2.73596918563667       -1.26999125914407        0.02720801455258
N            1.48785390820795       -1.95628058259814       -0.00143403576062
C            0.42996294433537       -1.08896160921395       -0.00297836319397
C            0.93391622457646        0.20027351763643        0.01995895983180
C            0.10456325183609        1.36210016473569        0.00211141533605
O            0.46584205426703        2.54270737416207        0.00489362472222
N           -1.28763613682583        1.04526512874539       -0.02830362453753
C           -2.24372685000612        2.14923157089504       -0.05864076584042
C           -1.82714750395391       -0.19982170354791       -0.04514852873856
O           -3.02837680299185       -0.38860488086078       -0.07547861839047
N           -0.93402434565585       -1.30443254704576       -0.02756356430551
C           -1.54253372366726       -2.61842220117758       -0.05263787546268
H            3.69545914088484        1.22092109359888        1.08787726721263
H            4.00626637426133        1.03837208081700       -0.65798551577144
H            2.67328377993429        2.08789526112531       -0.08538149460192
H            3.90899357318671       -1.57182967481685       -0.02077265718246
H           -1.68069579063227        3.08006943236183       -0.03738732398949
H           -2.85276313074723        2.10110279149976       -0.96307305297748
H           -2.91440746579615        2.09649885216396        0.80051129879333
H           -1.27544255579413       -3.18775293391046        0.83885248229343
H           -1.25131264767652       -3.16470826418456       -0.95123598191796
H           -2.62659910445066       -2.47713801312650       -0.06601944413036
H            1.37389356939855       -2.95628370469581       -0.01101796080333
25
 energy: 7.380833405295 xtb: 6.6.1 (8d0f1dd)
C            3.23162293830223        1.17189786779955        0.09833788329023
N            2.32905342916273        0.07536938932749        0.02992137193555
C            2.73496026495159       -1.26963306649296        0.03046583426701
N            1.48826164275843       -1.95558350620687       -0.00380177739125
C            0.42980749526150       -1.08955856528594       -0.00435617668017
C            0.93443731211337        0.20020068882128        0.01921703424501
C            0.10619739197665        1.36345648085396        0.00193780627465
O            0.46506429838703        2.54330567716529        0.00554506930894
N           -1.28686459780366        1.04585019753417       -0.02805467378639
C           -2.24362099337057        2.14871455266031       -0.05861178572004
C           -1.82657221058433       -0.19976510343782       -0.04515113034452
O           -3.02746636723895       -0.38826989153960       -0.07548682905269
N           -0.93299830010152       -1.30495321747882       -0.02735846965530
C           -1.54292452840733       -2.61872794702972       -0.05229072370976
H            3.69309057060490        1.22038760569517        1.08886791768744
H            4.00719610572761        1.03864077811109       -0.65655244996071
H            2.67333058569721        2.08760629560683       -0.08599764864683
H            3.91194488960688       -1.57092847133476       -0.02269841938800
H           -1.68171897728325        3.08015170530953       -0.03751955959583
H           -2.85274141919962        2.09984156770919       -0.96299507593782
H           -2.91424559509481        2.09561351156093        0.80058534498402
H           -1.27647875540444       -3.18782926261374        0.83915798336492
H           -1.25283966974124       -3.16493574180300       -0.95090092460220
H           -2.62657236000327       -2.47613364856232       -0.06538230868051
H            1.37229151761910       -2.95568929419722       -0.00984439605846
25
 energy: 7.414938553675 xtb: 6.6.1 (8d0f1dd)
C            3.23159659464586        1.17168947535822        0.09835896007076
N            2.32911548222093        0.07507044587652        0.02804405275071
C            2.73365202419386       -1.26926150492380        0.03382898334832
N            1.48809108963709       -1.95502368373215       -0.00516855592696
C            0.42935242203253       -1.08924964599844       -0.00513150863213
C            0.93451593723405        0.20055856578055        0.01878978044776
C            0.10699978282249        1.36415698009159        0.00168413244096
O            0.46466939485213        2.54412683056526        0.00572305656438
N           -1.28661149713519        1.04573765209830       -0.02800769671179
C           -2.24345729050868        2.14842800345059       -0.05847007753343
C           -1.82669345336045       -0.19966145669249       -0.04524224131483
O           -3.02748492897311       -0.38805894463463       -0.07558281622337
N           -0.93274448241247       -1.30502083523109       -0.02726556849407
C           -1.54246285015549       -2.61898956144837       -0.05228040487770
H            3.69206765986020        1.21976046307161        1.08926272420215
H            4.00770146584490        1.03848117274305       -0.65593165615565
H            2.67345251393895        2.08739085628242       -0.08631263800772
H            3.91209335132782       -1.57172910150268       -0.02462144803165
H           -1.68188625028337        3.08012366271107       -0.03740817239468
H           -2.85274372115374        2.09962045838664       -0.96277524232176
H           -2.91403302255190        2.09538099585140        0.80082056909573
H           -1.27571830225645       -3.18788021620984        0.83918236947447
H           -1.25214153610916       -3.16497877007747       -0.95088230252436
H           -2.62605765095797       -2.47659350571631       -0.06533557158331
H            1.37094193518341       -2.95504973392795       -0.00824483151459
25
 energy: 7.410906349897 xtb: 6.6.1 (8d0f1dd)
C            3.23167977523101        1.17161942998174        0.09834419002446
N            2.32940225917781        0.07520996350766        0.02546187014517
C            2.73221981512018       -1.26893932605767        0.03972302191871
N            1.48779602647135       -1.95453898982331       -0.00685809879056
C            0.42878626186813       -1.08844697347958       -0.00612762401083
C            0.93435950018367        0.20122421447149        0.01809318628595
C            0.10753818301247        1.36444337993171        0.00116597649591
O            0.46431226760673        2.54505504498803        0.00557315594443
N           -1.28683581611287        1.04519121998316       -0.02810740578671
C           -2.24334043475433        2.14831420244661       -0.05818004452300
C           -1.82727180467523       -0.19947567828526       -0.04541062533049
O           -3.02800946197182       -0.38818121327538       -0.07561824701532
N           -0.93288946758727       -1.30488417823960       -0.02729250214831
C           -1.54164996108720       -2.61919500207869       -0.05246493048465
H            3.69150048703700        1.21890703743461        1.08952399789523
H            4.00831002048795        1.03850504132537       -0.65550346662493
H            2.67360001226253        2.08724906757569       -0.08636421225094
H            3.91156809868141       -1.57365975974481       -0.02775907538431
H           -1.68154568065156        3.07999506939098       -0.03706573053476
H           -2.85287676667341        2.10006166285398       -0.96236416216946
H           -2.91378960922951        2.09553567752481        0.80127993668203
H           -1.27419793506329       -3.18795893577667        0.83904268522264
H           -1.25049656579965       -3.16499008537486       -0.95105664624428
H           -2.62539459333863       -2.47767985402244       -0.06555878387775
H            1.36944005774075       -2.95433241308558       -0.00544256929096
25
 energy: 7.384107290924 xtb: 6.6.1 (8d0f1dd)
C            3.23171624830212        1.17177306482936        0.09835519058815
N            2.32951196463785        0.07547529387562        0.02547788227337
C            2.73273056512660       -1.26911817162650        0.04068455168319
N            1.48787556044238       -1.95485026814953       -0.00687883199902
C            0.42899034536411       -1.08846219576538       -0.00623268102808
C            0.93426431070373        0.20113980412109        0.01786085774060
C            0.10711191129524        1.36399338982731        0.00105672178432
O            0.46450928563657        2.54463181202835        0.00533714815918
N           -1.28714821051644        1.04516091399963       -0.02822820005541
C           -2.24346596458037        2.14856377977441       -0.05813946130176
C           -1.82735591528069       -0.19945449320177       -0.04542262643580
O           -3.02811769096676       -0.38848545241650       -0.07542631657357
N           -0.93311426008938       -1.30481714914616       -0.02748730807110
C           -1.54174768934585       -2.61905584666370       -0.05255339098018
H            3.69200173050177        1.21893357150243        1.08938443187217
H            4.00821915225440        1.03892246437003       -0.65576800051010
H            2.67353847535138        2.08741542920976       -0.08599403843423
H            3.91135394324479       -1.57373083805873       -0.02807648447367
H           -1.68131196064313        3.07999574484149       -0.03697788700181
H           -2.85295669054658        2.10043629980331       -0.96233066165896
H           -2.91385845489027        2.09575800241748        0.80132624755802
H           -1.27433382872151       -3.18791387407763        0.83896789744631
H           -1.25059952412051       -3.16500743722529       -0.95112920890753
H           -2.62557486282932       -2.47765888983258       -0.06563561981431
H            1.36997622760611       -2.95461635226449       -0.00513631571251
