  72
        -99.36819953
 N         -2.5558598567        2.7644177583        2.7048180648
 C         -2.3327909422        1.9291266057        1.8022441409
 C         -3.0997741703        1.8690841279        0.5082120430
 C         -3.7876528750        0.5163414508        0.3753381316
 C         -4.3480969428        0.1346108467       -0.8046274283
 C         -5.2084751835       -1.0843292366       -0.9208970520
 O         -6.5878301575       -0.6818057567       -0.7859381863
 C         -7.3018664315       -0.5300144480       -1.9855640648
 C         -4.9825082453       -2.0574190947        0.2085331101
 O         -5.4700100277       -3.2670569253       -0.0574377933
 C         -5.5051419978       -4.2520587982        0.9563929113
 C         -4.4178106999       -1.6283615736        1.3840646119
 C         -3.8782322579       -0.3477538363        1.4898352503
 C         -2.0090559781        2.0242118630       -0.5997050636
 C         -1.1302299167        0.8251703111       -0.7106895641
 C          0.1540021973        0.8186665696       -0.3083868712
 N          0.9909373315       -0.2508609213       -0.3035778999
 C          2.3915926487       -0.0922985877       -0.0215501378
 C          3.2492496996        0.0184847538       -1.3011707653
 C          4.7075384035        0.0463858471       -0.9499846550
 C          5.4229923342        1.2342541057       -0.9291104567
 C          6.7654779797        1.2501625513       -0.5844972391
 C          7.4219777889        0.0759963591       -0.2405688431
 O          8.7158488444       -0.0287882729        0.1084281633
 C          9.5247508627        1.1249738612        0.1206844391
 C          6.6941998084       -1.1483745156       -0.2484876696
 O          7.4032795958       -2.2381591484        0.1019510225
 C          6.7728904351       -3.4967362904        0.1183561780
 C          5.3548286029       -1.1385120689       -0.6044085184
 C          0.5482076648       -1.5190506373       -0.8228644893
 C         -4.1862546410        2.9704256660        0.3671622573
 C         -5.2807623840        2.8022035500        1.4189308445
 C         -3.6267797880        4.3886635441        0.4197875747
 H         -4.3135234387        0.7693910399       -1.6757968301
 H         -6.9058964542        0.2893644307       -2.5957533998
 H         -8.3243181485       -0.2958964193       -1.6942495105
 H         -7.2958519926       -1.4545660005       -2.5738592418
 H         -6.1198371944       -3.9259315233        1.7984441571
 H         -5.9511849528       -5.1318806383        0.4974721840
 H         -4.4982655881       -4.4922601562        1.3076972387
 H         -4.3763515950       -2.2783793744        2.2439867682
 H         -3.5079421907       -0.0222177197        2.4486246345
 H         -2.5151419343        2.1963774554       -1.5511669382
 H         -1.4081502477        2.9042848226       -0.3682785190
 H         -5.0938531642       -1.5853855011       -1.8900054792
 H         -1.5930205890       -0.0634385416       -1.1090894667
 H         -1.5210872226        1.1855159892        1.8406860143
 H          0.5949233173        1.7289083005        0.0779870218
 H          2.7336766871       -0.9530093777        0.5618796070
 H          2.5375181939        0.8049257962        0.5835615867
 H          2.9701448438        0.9255366667       -1.8384179009
 H          3.0400270761       -0.8397416470       -1.9422861899
 H          4.9370034980        2.1604035680       -1.1946096669
 H          7.2967039185        2.1877996435       -0.5878912776
 H          9.1628572647        1.8599145096        0.8457598557
 H          9.5798642532        1.5849477090       -0.8702384521
 H         10.5149779781        0.7836726761        0.4161993155
 H          7.5396423990       -4.2036953237        0.4290783224
 H          5.9463701845       -3.5217446647        0.8357392514
 H          6.4055862033       -3.7744203051       -0.8744527321
 H          4.7994415335       -2.0632044557       -0.6292683936
 H          0.3434331619       -1.4658147667       -1.8962575638
 H         -0.3659487629       -1.8313166414       -0.3139716694
 H          1.3149810177       -2.2697656248       -0.6485305132
 H         -4.6449916701        2.8236076639       -0.6178030389
 H         -4.8673263344        2.9451969411        2.4128454709
 H         -5.7338791408        1.8152502922        1.3593851061
 H         -6.0589126919        3.5439672013        1.2587277623
 H         -3.1205552660        4.5590862237        1.3650690677
 H         -2.9372167294        4.5816374526       -0.3977816716
 H         -4.4462413924        5.0983292772        0.3390002218
 H         -1.9596638912        2.7519270117        3.5262393071
