  72
        -99.29284371
 N         -1.7963853045        2.7388020050        2.5414760874
 C         -1.7769836461        2.1006384114        1.4685164845
 C         -2.9272998059        2.0123468422        0.5039590434
 C         -3.4288911465        0.5776598104        0.4446997469
 C         -4.3403363685        0.2014630676       -0.5441201414
 C         -4.8427628374       -1.0871822568       -0.6129464428
 O         -5.7282055345       -1.5306754023       -1.5291861887
 C         -6.2778444473       -0.6221195838       -2.4538744283
 C         -4.4194549401       -2.0553390696        0.3376665962
 O         -4.9574135048       -3.2827633978        0.1941542928
 C         -4.6595365489       -4.2770209085        1.1465709891
 C         -3.5154037139       -1.6749806470        1.3166053419
 C         -3.0292289278       -0.3747486696        1.3692382073
 C         -2.3566251713        2.4372163516       -0.8746394273
 C         -1.4579909135        1.3832679273       -1.5443145138
 C         -0.1279848029        1.2442478979       -0.9109564053
 N          0.4911042133        0.0972216252       -0.6694333234
 C          1.8857334125        0.0863915029       -0.2929216126
 C          2.7950175006       -0.1417517103       -1.5134981695
 C          4.2349127378       -0.1830507349       -1.0734619849
 C          4.9327047697        1.0350511143       -0.8508857161
 C          6.2826006073        1.0374463520       -0.5202541285
 C          6.9729767133       -0.1364318007       -0.3269215473
 O          8.2790495669       -0.2795595167       -0.1335308427
 C          9.1119709561        0.8623939948       -0.0760263329
 C          6.2400215750       -1.4672753683       -0.3053257862
 O          6.2387903679       -1.9054421863        1.0537796927
 C          6.0040580511       -3.2818208279        1.2024919487
 C          4.8628480386       -1.3423300967       -0.8080219743
 C         -0.1509982392       -1.1786142545       -0.8770405941
 C         -4.1262419363        2.9307937938        0.8846977639
 C         -4.7655006419        2.4982987645        2.2019923488
 C         -3.7530852265        4.4090180534        0.9535891087
 H         -4.6731134140        0.9328651416       -1.2617367973
 H         -6.7987100494        0.1975713757       -1.9499413394
 H         -6.9933296611       -1.1976639386       -3.0378247442
 H         -5.5123552898       -0.2148548878       -3.1225857471
 H         -4.9579134695       -3.9694720898        2.1531229928
 H         -5.2387272610       -5.1488885184        0.8490568896
 H         -3.5948246675       -4.5313673377        1.1423997285
 H         -3.1891193849       -2.3831175882        2.0608092340
 H         -2.3512068070       -0.1092108344        2.1654599086
 H         -3.1876607830        2.6487336312       -1.5465948677
 H         -1.7910731359        3.3614923148       -0.7505224176
 H         -1.9822682887        0.4303861266       -1.5896243133
 H         -1.2906576297        1.7215088945       -2.5755763172
 H         -0.8866537036        1.5633159972        1.0872590809
 H          0.4499782477        2.1451485971       -0.7641725670
 H          2.0582183161       -0.7095179889        0.4352740770
 H          2.1423167722        1.0393509446        0.1750986603
 H          2.6423227159        0.6655136307       -2.2324042783
 H          2.5375364520       -1.0882469043       -1.9886916444
 H          4.4090419036        1.9728963923       -0.9610733469
 H          6.7906832797        1.9861223712       -0.4336838976
 H          8.8400799638        1.5033522760        0.7664595893
 H          9.0607548264        1.4349200153       -1.0060518938
 H         10.1222418863        0.4838354515        0.0655484638
 H          5.9810727308       -3.4718664897        2.2734929833
 H          5.0459483549       -3.5691320744        0.7540264935
 H          6.8038362979       -3.8728909727        0.7409146207
 H          6.8221663154       -2.1941645677       -0.9012869315
 H         -0.3505031078       -1.3547261888       -1.9361118773
 H         -1.0958965999       -1.2219315316       -0.3297504129
 H          0.4992634482       -1.9693854842       -0.5120585569
 H         -4.8735067299        2.8066436531        0.0923727393
 H         -4.0604593594        2.6247843700        3.0172222825
 H         -5.0796491178        1.4580727528        2.1639439406
 H         -5.6395656374        3.1125619354        2.4013616419
 H         -2.9876784138        4.5697431666        1.7064074353
 H         -3.4010603377        4.7849026548       -0.0034230511
 H         -4.6311042092        4.9849035277        1.2339460675
 H         -0.9509926407        2.7522541952        3.1033086324
