  25
        -42.22253510
 C          2.9472890455        1.3657861480       -0.0264720187
 N          2.1349875327        0.1835981706        0.0023298809
 C          2.5474085718       -1.0801611232        0.0148813136
 N          1.4762694219       -1.9100303858        0.0157810020
 C          0.3504849116       -1.1424837984        0.0021808454
 C          0.7646420467        0.1789787561       -0.0066874672
 C         -0.2009687309        1.2427499400        0.0030739511
 O         -1.5178607235        0.7690369675       -0.0223853086
 N          0.1052066522        2.4570768974        0.0364428254
 C         -0.8046783534        3.5496380817        0.0639272814
 C         -1.9379776135       -0.4999659845       -0.0357055146
 O         -3.0931751405       -0.7706860496       -0.0674280833
 N         -0.9467192920       -1.5152871105       -0.0037395729
 C         -1.3483394307       -2.9078645828        0.0219203115
 H          2.5512192755        2.0912244447        0.6831807260
 H          3.9767198712        1.1160445649        0.2184608828
 H          2.9075840947        1.8201766848       -1.0176117852
 H          3.5686939017       -1.4033127162        0.0254900646
 H         -0.4108346918        4.3184606862       -0.6012715600
 H         -1.8238785419        3.2819606599       -0.2195440568
 H         -0.8079744425        3.9602069367        1.0756598359
 H         -0.9623202889       -3.3968602285        0.9170139362
 H         -0.9959465671       -3.4238670695       -0.8718523523
 H         -2.4367289276       -2.9360755826        0.0410959026
 H          1.5168525386       -2.9189598185        0.0265766220
