  72
        -99.30958061
 N         -1.5790833985        2.4616002395        2.7147419647
 C         -1.4341760113        1.7603935725        1.6922642983
 C         -2.4240197797        1.7547737413        0.5354178342
 C         -3.1221605945        0.4033288956        0.4937691637
 C         -4.0611733705        0.1523129169       -0.5084514090
 C         -4.7514775007       -1.0484064354       -0.5746095731
 O         -5.6780876258       -1.3561217967       -1.4983018061
 C         -6.0451926290       -0.3909312359       -2.4585063392
 C         -4.4911573589       -2.0610966081        0.3931790958
 O         -5.1880832877       -3.1995295385        0.2421606061
 C         -5.0109617814       -4.2494933493        1.1652674818
 C         -3.5702605561       -1.7955817835        1.3972139840
 C         -2.9022266897       -0.5805410347        1.4504548128
 C         -1.5979230827        2.0204019839       -0.7304172250
 C         -1.5897349672        1.1848534704       -1.9781193857
 C         -0.3400753924        1.2650838365       -1.1554867116
 N          0.1908446588        0.1550257434       -0.4334177810
 C          1.6024463008        0.2311697344       -0.1438465952
 C          2.5161858847       -0.1014800655       -1.3481748745
 C          3.9565225168       -0.0394289914       -0.9433836284
 C          4.6733535076        1.1471901371       -1.0329323058
 C          6.0020281561        1.2070863294       -0.6473545276
 C          6.6469604304        0.0790145940       -0.1545196693
 O          7.9283447519        0.0159492397        0.2392238031
 C          8.7432641769        1.1616467374        0.1385851993
 C          5.9172210751       -1.1412007779       -0.0462203873
 O          6.6146591046       -2.1811827955        0.4421057000
 C          5.9932868087       -3.4391593994        0.5630979229
 C          4.5879776698       -1.1743827455       -0.4406064807
 C         -0.2989666408       -1.1667226817       -0.7503667419
 C         -3.5209834364        2.8613845873        0.6742754703
 C         -4.4875831227        2.5479510956        1.8096354096
 C         -2.9806883552        4.2733333265        0.8577606755
 H         -4.2763080915        0.9231010308       -1.2308438855
 H         -6.4230933642        0.5216281571       -1.9879563344
 H         -6.8370904736       -0.8504837934       -3.0462754389
 H         -5.2055662438       -0.1403408326       -3.1146493240
 H         -5.2903241471       -3.9445219043        2.1776847630
 H         -5.6745564381       -5.0455240848        0.8325061887
 H         -3.9788984013       -4.6131672554        1.1638216633
 H         -3.3714888064       -2.5324974023        2.1582985088
 H         -2.2145364503       -0.4109694660        2.2632129281
 H         -5.1750730840        2.9994978248       -1.5713239461
 H         -1.5069903462        3.0838229379       -0.9115564121
 H         -2.1277369997        0.2529239249       -1.9839416333
 H         -1.6061847987        1.6988815671       -2.9275492436
 H         -0.5827080513        1.0941446854        1.5091065240
 H          0.4430162847        1.9142876140       -1.5333533579
 H          1.8204257108       -0.4720684830        0.6650839471
 H          1.8332463976        1.2386647574        0.2116390948
 H          2.3207093797        0.6117868586       -2.1502110394
 H          2.2748444246       -1.1022956750       -1.7077608517
 H          4.1973313324        2.0351442911       -1.4197903644
 H          6.5341943435        2.1398107129       -0.7382538183
 H          8.3691065962        1.9751744138        0.7671110113
 H          8.8223165499        1.5055858793       -0.8968214162
 H          9.7248790944        0.8533422300        0.4932423967
 H          6.7567672495       -4.1049810292        0.9604934454
 H          5.1478393054       -3.4031742045        1.2571394170
 H          5.6553635616       -3.8137557063       -0.4077732721
 H          4.0301465657       -2.0953044044       -0.3738810585
 H         -0.1468251749       -1.4284444092       -1.8038695580
 H         -1.3618712796       -1.2322324188       -0.5252504830
 H          0.2230023286       -1.8915369494       -0.1289894498
 H         -4.1179063226        2.8670629651       -0.2847793077
 H         -3.9487285070        2.5515110086        2.7547913866
 H         -4.9659378874        1.5800288215        1.6825867115
 H         -5.2627737950        3.3088022932        1.8524782723
 H         -2.4012225846        4.3306094975        1.7766833716
 H         -2.3599252558        4.6035062646        0.0283939255
 H         -3.8160788260        4.9648675445        0.9354749175
 H         -0.8663095316        2.4183812289        3.4359382223
