25
 energy: 128.695848180483 xtb: 6.6.1 (8d0f1dd)
C            3.42662383304829        1.30080551843803        0.12488459681151
N            2.49845688800603        0.20417741579475        0.07636245009003
C            2.77825330437783       -1.10065642264528        0.11782388026676
N            1.64557163503095       -1.81208053507237        0.04495196458259
C            0.58391218560417       -0.94374716998773       -0.02514352528551
C            1.12262563500240        0.35352242836238       -0.00784873493046
C            0.30162125232694        1.51332066819077       -0.05135506886891
O            0.68682404804702        2.68661181189568       -0.05296966260526
N           -1.06244951509695        1.13640044373781       -0.08423415046180
C           -2.02968892718039        2.23498336233001       -0.10385531275492
C           -1.60734603267421       -0.08878350354486       -0.09722197931041
O           -4.04339456682259       -3.10130536286423       -0.04581763467365
N           -0.74844074110779       -1.19627497308756       -0.09039184486385
C           -1.21640506501023       -2.45411053125614       -0.16919970845279
H            3.92687158675112        1.33512619607932        1.09228171774194
H            4.17976872668092        1.19540978630879       -0.65626851870889
H            2.87369165410275        2.23204498990836       -0.01874831096218
H            3.76473072646290       -1.51670877013774        0.17722331136604
H           -1.47667158282969        3.17143917952017       -0.04239384307678
H           -2.61975210578916        2.20824854694135       -1.02659569888755
H           -2.71966810148166        2.14887504524269        0.73957265354844
H           -0.51531495708089       -3.29523346805612       -0.14531091037406
H           -2.26671973911000       -2.64014492076130       -0.09319512898509
H           -4.95795645688884       -2.87500025391842        0.12980215856533
H            1.59663822434201       -2.82328757318320        0.06215215258666
