25
 energy: 130.200082717111 xtb: 6.6.1 (8d0f1dd)
C            3.41475988714604        1.30624359230195        0.11973829804849
N            2.48337818838887        0.20999594373218        0.07448997219182
C            2.77129923836773       -1.08953526630101        0.11308524255443
N            1.65000634521523       -1.81739187762538        0.05035273554507
C            0.57373155279520       -0.95758141703255       -0.02205632087152
C            1.10760734582225        0.34376578713460       -0.00747518737719
C            0.29076105505546        1.50487899326601       -0.05076766119325
O            0.68692130301639        2.67715753671765       -0.05399022287219
N           -1.07654175809328        1.11479396734607       -0.07940065845364
C           -2.03567110539614        2.22220793070082       -0.10265493485259
C           -1.62800166221714       -0.11829772428068       -0.09217195518935
O           -3.99780568830917       -2.95664615571872       -0.03601483150276
N           -0.75626583765618       -1.22727312634098       -0.09462309368633
C           -1.20457339750828       -2.49436041594827       -0.19624164784181
H            3.91432060812444        1.34398604005731        1.08576936605194
H            4.16343908851390        1.19383150494034       -0.66271311164610
H            2.85783580996925        2.23353069137111       -0.03106883666650
H            3.76144958810668       -1.48826319653827        0.18072558692132
H           -1.47016186757469        3.14637975745468       -0.04288173972796
H           -2.61690216903489        2.19476320762954       -1.02945257072549
H           -2.73279043569563        2.15702676272857        0.73838298895065
H           -0.50062761436718       -3.32728954406575       -0.19107714140897
H           -2.24928356173163       -2.71495025705631       -0.06523814946666
H           -4.93000727889591       -2.86680509617878        0.13287068801181
H            1.61152933020943       -2.82869513787823        0.08782091719675
