25
 energy: 136.923480394790 xtb: 6.6.1 (8d0f1dd)
C            3.37115025582244        1.29524831251759        0.10290703655839
N            2.44915082511351        0.18852002324136        0.08649500739319
C            2.74833452173056       -1.11835321568929        0.13089800370004
N            1.62519204227876       -1.84699758979040        0.09991918811940
C            0.54030854782475       -1.00325536169436        0.00073720610580
C            1.05595039100288        0.30772271430838        0.00101518512871
C            0.19246412128904        1.42072082333463       -0.04447176359479
O            0.55805001446554        2.60415802101654       -0.05311393396142
N           -1.18131117740611        1.00417003169498       -0.06570838451420
C           -2.09001759288154        2.15021602477475       -0.12359844830501
C           -1.71870977765692       -0.23948910374231       -0.09390229689228
O           -3.90647701122649       -2.44310651225052        0.04830788395372
N           -0.77805346424505       -1.30018601576713       -0.12880876916726
C           -1.28138141909516       -2.51575615724815       -0.35132404182986
H            3.90947172589271        1.34387848825916        1.05109107655772
H            4.09880367870964        1.19726484552886       -0.70450533226766
H            2.82559962994657        2.23414303115958       -0.02835271944800
H            3.75376416309403       -1.52470303512560        0.19288447611729
H           -1.47837949370977        3.04552031564437       -0.06837700567564
H           -2.64294421591149        2.12137466600720       -1.07689186308767
H           -2.79840232490526        2.14570447823904        0.70353714948537
H           -0.67477675962663       -3.37132234731998       -0.55984776126897
H           -2.37596015408937       -2.45213755003231       -0.29611751295099
H           -4.79572391308865       -2.89389753234161        0.19008073574028
H            1.57553626402987       -2.86030786968637        0.17651233097585
