25
 energy: 149.424715636142 xtb: 6.6.1 (8d0f1dd)
C            3.37609858721358        1.30082385830919        0.12816920788146
N            2.42009275164904        0.19942538394622        0.09383231642714
C            2.74390397801440       -1.11652132826103        0.17339896303111
N            1.61400142544584       -1.87091937076929        0.13168961126248
C            0.51505681937567       -1.05359980660786        0.03212365398794
C            1.02747348545370        0.26243124925225        0.00889221387684
C            0.12204529513572        1.36358967072581       -0.03824832876985
O            0.49114878854838        2.54496083238494       -0.08799711446210
N           -1.25701663825616        0.94707134816907       -0.04964172237769
C           -2.11679514843598        2.12637435754254       -0.12705453336274
C           -1.79504803088526       -0.30370882209265       -0.05955055877621
O           -3.52865596741340       -2.10091110966680        0.14759511342006
N           -0.83317614379887       -1.33305546435287       -0.07409451013351
C           -1.42751748213286       -2.51914182765389       -0.37641112175597
H            3.93605690827342        1.31764021656998        1.06953445037804
H            4.12065963992245        1.23251312701525       -0.67455139222868
H            2.87050617197789        2.26361877902910        0.02821400616395
H            3.74966556284251       -1.46337469388708        0.24714932840203
H           -1.45233093850517        2.98927142434338       -0.06037593487927
H           -2.64071567338983        2.18383798288264       -1.08353659327893
H           -2.84011960463795        2.14007133566026        0.67782484701709
H           -0.88237837773729       -3.43219494026157       -0.43408901595965
H           -2.45371521403466       -2.39297339704471       -0.78264703688612
H           -4.12391915107502       -2.94179543243811        0.36970706917277
H            1.66184749002291       -2.87564264168995        0.16668015578077
