25
 energy: 40.529686123624 xtb: 6.6.1 (8d0f1dd)
C            3.30762341496197        1.25331605637799        0.11354684962787
N            2.35905565571948        0.17631845388851        0.04653320626114
C            2.71498427101536       -1.16131831293522        0.08709558172919
N            1.55665078131119       -1.89876667766299        0.06778621103484
C            0.44774306815098       -1.12511511625710        0.03833808748739
C            0.94192331459086        0.20560851372253        0.02243438432696
C            0.07071370654651        1.29610981618280       -0.06483175775617
O            0.41133194350850        2.48568160694321       -0.12935435912726
N           -1.35900822416052        0.89687438367335       -0.07521888333969
C           -2.16903418816962        2.11024273019067       -0.10054557435122
C           -1.86222928302283       -0.38255467780030        0.05325296448406
O           -3.01234322529822       -0.80792281269296        0.11734975209494
N           -0.92881653293656       -1.43731260923117        0.05281360594990
C           -1.75747716038616       -2.73975179555071       -0.04252524105723
H            3.82689832072347        1.28755283886313        1.08287609439337
H            4.07869446408814        1.14505189765319       -0.66090895202299
H            2.79046088117631        2.19987577919952       -0.02990718601754
H            3.70486476618319       -1.57305211590947        0.16027221459176
H           -1.49043875349262        2.96970535719685       -0.04149582364148
H           -2.72646695146034        2.20094744992971       -1.02962186044470
H           -2.83026607669779        2.16287516494441        0.75881366085886
H           -0.99797416843078       -3.48551636897466        0.17317564721536
H           -2.05439362251778       -2.88737021523787       -1.08070177423561
H           -2.93315866474334       -2.96670851910663        0.52685504276323
H            1.56709497265113       -2.90145802145302        0.06965960478281
