25
 energy: 29.125305742118 xtb: 6.6.1 (8d0f1dd)
C            3.29662814102633        1.23967454523339        0.11029236300161
N            2.35121504860426        0.16038481388952        0.04294615721917
C            2.70329462200678       -1.18061900617344        0.08357885620141
N            1.53720564332495       -1.90680402179262        0.05685131653338
C            0.43584135265037       -1.12287173377900        0.02118868343839
C            0.93476955082992        0.20183629386155        0.01129921004980
C            0.07436963315471        1.29852210504952       -0.07132412239271
O            0.40131999163547        2.48864718716173       -0.11335976119693
N           -1.36198241156938        0.90757917897559       -0.07066550065536
C           -2.18036347159554        2.11322981722427       -0.09436038665297
C           -1.87358510127672       -0.37294046067592        0.02622265266455
O           -3.02775431079727       -0.77361302660180        0.11150022725666
N           -0.94190848212154       -1.42830546606752        0.04005293012819
C           -1.75277216044682       -2.73019061866516       -0.00592073033511
H            3.80852256547055        1.27728076732893        1.08284980868374
H            4.07044908366951        1.12842251379082       -0.66019149764759
H            2.77704114716734        2.18438352428353       -0.03890086398967
H            3.69070003722950       -1.59321398319091        0.14578287383036
H           -1.51437087895122        2.98217413457569       -0.04288984027430
H           -2.74517851610615        2.18519615240031       -1.02109178892175
H           -2.83673457382091        2.15422568923633        0.76906603836311
H           -1.00138587119737       -3.46110100287903        0.28349539777673
H           -1.95252069418233       -2.94143818060932       -1.06483755652665
H           -2.87057731922599       -2.84962160292435        0.54782987822483
H            1.53674188524701       -2.90876494907605        0.06410494620881
