25
 energy: 134.416508826543 xtb: 6.6.1 (8d0f1dd)
C            3.37830196359216        1.30218719078168        0.10301578544831
N            2.45375826088933        0.20061279076943        0.08232749253595
C            2.75337945445565       -1.10195374848146        0.12402635884699
N            1.63699387281037       -1.83880537878547        0.08569080231566
C            0.54725337047292       -0.99332360971701       -0.00829418221389
C            1.06296011890839        0.31650924813644        0.00042961478251
C            0.21249037873393        1.44082444950666       -0.04402079076583
O            0.58659481073322        2.62132666653526       -0.05515529510092
N           -1.15672358333933        1.02620383618500       -0.06756341593107
C           -2.07586897262654        2.16536160004243       -0.11727335017419
C           -1.69553185023046       -0.21638074527572       -0.09081025335684
O           -4.00083536066858       -2.55012408724210        0.02948863453000
N           -0.77129557662386       -1.28924580820246       -0.11438521682292
C           -1.24941595047261       -2.52383569580304       -0.30372204288002
H            3.90223501269027        1.36356195148620        1.05893601429198
H            4.11299667617412        1.18855217556933       -0.69401980644925
H            2.82198228240752        2.23239232535835       -0.04855001435559
H            3.75443608716102       -1.51023242707839        0.19264079875581
H           -1.47115901167830        3.06754389678792       -0.06078946325981
H           -2.64007207522922        2.13867667173183       -1.06204047738162
H           -2.78146643469182        2.14999979818030        0.71494254045778
H           -0.62160912855101       -3.37509107658642       -0.47385237364575
H           -2.33307295137508       -2.53507902655686       -0.20909359265516
H           -4.95352090928514       -2.86074445028099        0.11230728888331
H            1.59626602029451       -2.85277521195797        0.15888017720697
