  25
        -42.12823470
 C          3.0126443647        1.2864501738        0.0360615883
 N          2.2886747555        0.0431087553        0.0258036864
 C          2.8015784304       -1.1852876041        0.0939440268
 N          1.8008266361       -2.0993187340        0.0621209470
 C          0.6151197598       -1.4266699172       -0.0266901561
 C          0.9214431852       -0.0724121100       -0.0483565256
 C         -0.1270067315        0.9258289257       -0.0800387815
 O          0.0053930548        2.1295515748       -0.1210049203
 N         -1.3796653686        0.3027149615       -0.0519821974
 C         -2.9334906321        3.3579117185        0.1706918315
 C         -1.6771093139       -0.9891991832       -0.0652043317
 O         -3.3244800835        2.2226179462        0.1343796098
 N         -0.6608806692       -1.8817288926       -0.0719137768
 C         -0.9606719553       -3.2976249194       -0.0928970239
 H          3.5930665262        1.3802946166        0.9543674517
 H          3.6911117626        1.3383890861       -0.8159792012
 H          2.2959358340        2.1053085930       -0.0247648259
 H          3.8431807845       -1.4233529098        0.1708024698
 H         -2.1892405349        0.9660301787       -0.0318530913
 H         -3.6038527611        4.1956831901        0.3956246943
 H         -1.8813467640        3.6237647447       -0.0160208729
 H         -0.5654989403       -3.7898656029        0.7968597134
 H         -0.5469731025       -3.7659484838       -0.9871043326
 H         -2.0431244450       -3.4028035783       -0.1055185789
 H          1.9273261749       -3.1001734262        0.0999806507
