  25
        -42.18796467
 C          2.2286999192        1.2260429742       -0.0825217966
 N          1.9893327694       -0.2121940135       -0.0163417176
 C          3.0415551811       -1.0856589937        0.0909021618
 N          4.2052329809       -0.6104585997        0.0844134325
 C         -0.1997710593       -1.5050450383       -0.0246758124
 C          0.6291582276       -0.4180628599       -0.0114607349
 C          0.0432689115        0.8726468030       -0.0068307138
 O          0.9405800975        1.8339064062       -0.0265222648
 N         -1.2622471838        1.0502028535        0.0248247178
 C         -1.8729009464        2.3650738235        0.0584835012
 C         -2.1518708064       -0.0657363138        0.0071451926
 O         -3.3342236500        0.1110120521        0.0219314437
 N         -1.5463178798       -1.3067145397       -0.0281430655
 C         -2.4243261012       -2.4646472703       -0.0923276755
 H          2.7277894424        1.5040128010       -1.0233853842
 H          4.9648749969       -1.2742727985        0.1633515429
 H          2.8492157862        1.5643036319        0.7584381554
 H          2.7328361103       -2.1336298605        0.1696009258
 H         -1.0999656930        3.1162353238        0.1930970471
 H         -2.4147949358        2.5409958502       -0.8709167291
 H         -2.5921196760        2.4011430547        0.8768005671
 H         -2.2652851086       -3.1088959555        0.7718155420
 H         -2.2330896080       -3.0279860683       -1.0055093493
 H         -3.4556275776       -2.1166259752       -0.0949242928
 H          0.1432588087       -2.5267854980       -0.0350426571
