72
 energy: -99.604423418077 xtb: 6.6.1 (8d0f1dd)
N           -1.57499133961080        2.89607965296886        2.34789090333604
C           -1.62553810659132        2.09972342948554        1.38105241176340
C           -2.73696711456024        2.04233655734048        0.36319504214379
C           -3.36743054502761        0.66044767507611        0.39506436459798
C           -4.28467047219968        0.28471873603086       -0.58905976013057
C           -4.86057347951381       -0.97172565140117       -0.59442704903068
O           -5.77227011912699       -1.41921279756982       -1.50609615995172
C           -6.22096080081264       -0.53396750784624       -2.49680599844940
C           -4.51617913182445       -1.90388682480131        0.40816258818406
O           -5.11926426208264       -3.12484630573584        0.31200847567388
C           -4.82932727065303       -4.08973836714008        1.28988662000060
C           -3.62751994176701       -1.52107954636574        1.39394814432949
C           -3.06249369259991       -0.25165783938086        1.38525838808383
C           -2.07931668844995        2.28566991620373       -1.02834883623831
C           -1.42702885137911        1.05592688942655       -1.69392835386895
C           -0.37175552098088        0.43194081925137       -0.84814213306918
N           -0.05104113475116       -0.77810647825148       -1.00378631882407
C            2.26941690859589        0.08009737015021       -0.40024985634011
C            3.03205610239579       -0.44562889978969       -1.52065007070943
C            4.39491276612806       -0.25587397745174       -0.91394186065073
C            5.13045590585627        0.89333230429686       -1.10597570966360
C            6.45252287931737        0.95253493851207       -0.69447857871474
C            7.04391076539620       -0.11858701656198       -0.04753136069061
O            8.34806293434988       -0.18302375233085        0.35596758762765
C            9.17268640672421        0.92136892123422        0.11240579009209
C            6.26996445056819       -1.26393898690988        0.24815322050801
O            6.94657850341167       -2.25914332651679        0.88985254810155
C            6.27375520519665       -3.45482261577961        1.19253626286259
C            4.95294510892515       -1.30822133320164       -0.15786100040710
C            0.06386916086940       -1.86734293318938       -0.14186285877249
C           -3.84130265271730        3.09972403727464        0.61905700179334
C           -4.53290103396583        2.84888443201588        1.95641827455237
C           -3.32311570911944        4.53395895533804        0.56388864938518
H           -4.55452760228555        0.98955283446749       -1.35769107884204
H           -6.69577623340633        0.35235984972704       -2.06181070451187
H           -6.95844831835074       -1.09151326507693       -3.07246691222243
H           -5.40730265884410       -0.22130899668215       -3.15996094474345
H           -5.12680370988398       -3.75380023396468        2.28861842527147
H           -5.41767634339481       -4.96587689162283        1.02124723657088
H           -3.76761018496028       -4.35762880852443        1.29495584611586
H           -3.36708449197668       -2.20329842197773        2.18719473883084
H           -2.38608181201902        0.01972436181569        2.17997853758831
H           -2.84902117874993        2.67332760989669       -1.71005467052332
H           -1.32758809128064        3.06838502546768       -0.91207729836935
H           -2.14643000112383        0.29741196328195       -1.96099577195237
H           -0.92848797467209        1.41499290514298       -2.59396333937091
H           -0.81802143942251        1.41239534715250        1.11848439455535
H            0.12067426073670        1.10670469519394       -0.19126420951075
H            2.34715688364807       -0.49977887936856        0.50565552221110
H            2.13349479026129        1.11949251429196       -0.36888925283405
H            2.88559442145277        0.16716278601981       -2.39769688140935
H            2.83261653554383       -1.49279584875830       -1.74282859251576
H            4.68529577856478        1.73583606353043       -1.61008567127611
H            7.02344334214275        1.83470295362534       -0.92940082847375
H            8.80659178913326        1.82314159296243        0.61671420258670
H            9.26932254694313        1.11973168109884       -0.96091961227899
H           10.14527684114788        0.65159868403632        0.52126010347759
H            7.01153258847151       -4.09299975279673        1.67709595788554
H            5.43940320577928       -3.28789586410616        1.88176597422210
H            5.90183061123885       -3.95667642611900        0.29196344750202
H            4.35411620697691       -2.18224554095415        0.06861386679073
H            0.26031979854702       -2.68711021257457       -0.83695444462641
H           -0.94031645390253       -2.00642816421341        0.28033539409820
H            0.74931514522238       -1.91017195059058        0.77423606263149
H           -4.58464923479978        2.97979490735671       -0.17729811407394
H           -3.82111074820386        2.99534953474554        2.76153268202579
H           -4.92525346193793        1.83592168260346        2.00673233890244
H           -5.35491846633817        3.55091009077259        2.08542106960188
H           -2.56251242253077        4.67444292108330        1.32073473587978
H           -2.90632037273879        4.77419437605815       -0.41013518195484
H           -4.14042958360486        5.22368549640804        0.75887110137067
H           -0.72401525641755        2.82052868204902        2.90101952023919
