25
 energy: 1.184786949989 xtb: 6.6.1 (8d0f1dd)
C            3.17937644883090        1.35950185166903        0.09453731708152
N            2.39911095192874        0.08963412326876        0.03737746648130
C            2.64884727418682       -1.30902812007091        0.04156885404291
N            1.43608333024886       -2.00811981615403        0.00773924823193
C            0.42691705882125       -1.12157018126570       -0.01048079194082
C            0.98519766965366        0.15544284106905        0.00809618364830
C            0.16163348937586        1.30609033465577       -0.01236205776898
O            0.53168140747886        2.48308901807772       -0.02328584515531
N           -1.23088602157859        0.99282735733511       -0.03339930599038
C           -2.14350353530970        2.12357546213870       -0.04747040974764
C           -1.80154045477877       -0.23890463756814       -0.04937546927218
O           -3.00509138765978       -0.40908291924678       -0.07189481093945
N           -0.93073843369035       -1.34634596459920       -0.04027243711517
C           -1.54619049374799       -2.65487093182115       -0.06362862659429
H            3.69734914304413        1.50445127037582        1.05200312687671
H            3.95631577886900        1.39941610301262       -0.68390232700148
H            2.48211139982218        2.19126743674966       -0.03873017481379
H            3.58973350725651       -1.80307600929725        0.04482034698971
H           -1.54559523055884        3.03008631645273       -0.02641413866827
H           -2.75001473005849        2.10635542747166       -0.95069056819281
H           -2.78576184777809        2.09297509879489        0.82878159315917
H           -1.30032964329414       -3.23089515397813        0.83030403994686
H           -1.26461253589955       -3.21259972362420       -0.95869516966436
H           -2.62633383749403       -2.48842076592047       -0.08235274417187
H            1.29768909881953       -3.00958765445451       -0.00713719176586
