25
 energy: -3.540071749173 xtb: 6.6.1 (8d0f1dd)
C            3.19956552852159        1.29669827062056        0.09231377448312
N            2.36479999962226        0.09541864219351        0.03412057085647
C            2.63088528520119       -1.28359880441269        0.03536998612392
N            1.42690878123687       -1.98184216009272        0.00375149625729
C            0.41402648225442       -1.09937146803392       -0.01089600344348
C            0.96073626411052        0.17962876971857        0.00858700284253
C            0.14527812800444        1.33432086544474       -0.00921675123954
O            0.52310494139361        2.50963723506581       -0.01436426801789
N           -1.24598834246472        1.01265510535143       -0.03181775699523
C           -2.17133196004789        2.13157791128597       -0.04827139511741
C           -1.81173364440085       -0.22336754894132       -0.04814495162136
O           -3.01481564493004       -0.39688937391717       -0.07044180652194
N           -0.93761041732986       -1.32845169724969       -0.03896236805047
C           -1.52208412308079       -2.64971957679852       -0.06223890682197
H            3.70655550194270        1.41083264420100        1.05926250959778
H            3.98085063734074        1.27907520045584       -0.67891297882426
H            2.55468985413620        2.16465097973563       -0.05921193640411
H            3.58492484592372       -1.75103512461392        0.04365289854923
H           -1.58781730895713        3.04788896302847       -0.02609026345356
H           -2.77593746220664        2.10203321866177       -0.95278505274333
H           -2.81853033905541        2.08993196011903        0.82466319160963
H           -1.25524683005399       -3.21863068156807        0.83081018223853
H           -1.22345572743730       -3.19921121646365       -0.95750448844901
H           -2.60473607374148       -2.51140833818551       -0.07926568270401
H            1.31878499966718       -2.98459642411773       -0.00983017978934
