25
 energy: 42.334073595027 xtb: 6.6.1 (8d0f1dd)
C            3.42053934943600        2.60937341340529        0.13676014729604
N            2.38565006221484       -0.44167644067290        0.04209568350311
C            2.48352175150413       -1.74316323927771        0.03850813994900
N            1.26821953809788       -2.40416838462695        0.00636672290940
C            0.32347374973115       -1.42452929019507       -0.01917215502387
C            1.03844386385192       -0.21912251890337       -0.00629187934927
C            0.29445067556641        1.02898864209374       -0.04272692462639
O            0.73674869380162        2.15157772261502       -0.06531539313133
N           -1.06793344985804        0.82963612155139       -0.04428659231353
C           -1.83636459438148        2.07124042804313       -0.03695040922039
C           -1.77923080961602       -0.34756339737500       -0.05247610215541
O           -2.99197265835117       -0.32329552089361       -0.06338978546465
N           -1.04304799434290       -1.54065792374471       -0.05056170269916
C           -1.85965445880073       -2.74747859314441       -0.07873221856897
H            3.84156331277105        2.67857192264353        1.09639190598240
H            3.95510334139906        2.78042311767092       -0.75121420290341
H            2.41635482854012        2.91079651936170        0.05902335554422
H            3.37988591065645       -2.32127767110628        0.01491765464901
H           -1.10092861666076        2.87588862712864       -0.03933475335136
H           -2.44835086171868        2.14316486965426       -0.92868568925770
H           -2.41897518238136        2.13703360038609        0.87267876619628
H           -1.77827953090543       -3.36601718017049        0.81793030912548
H           -1.70430599710568       -3.36827566850645       -0.96325384775588
H           -2.89798640274738       -2.37848344777601       -0.11748651845765
H            1.10595396546118       -3.40364105259991       -0.00073889998550
