25
 energy: 41.836757503200 xtb: 6.6.1 (8d0f1dd)
C            3.22942570657568        1.80617809588559        0.12116382288572
N            2.41536851737454       -0.13191904277844        0.01511906316848
C            2.61758845435748       -1.43819445810461        0.05096044585245
N            1.42869038561776       -2.14425506128419        0.02402461924853
C            0.42193812120141       -1.22629343627593       -0.01160750826175
C            1.03876375475339        0.02717160690524        0.00010399892957
C            0.21696607724029        1.21835256490900       -0.02340049245912
O            0.55737825957991        2.38582905680975       -0.03665304739674
N           -1.17216010044357        0.93525011010415       -0.03756989287270
C           -2.05486505238528        2.09630083790657       -0.04708636845820
C           -1.77514516765669       -0.28022056376445       -0.05025668615513
O           -2.98205548568499       -0.39540518786367       -0.06506264365856
N           -0.93866152797788       -1.41093773117236       -0.04343888913821
C           -1.63073921751902       -2.67746289998733       -0.06572215666419
H            3.71591805355140        1.85111183025395        1.06505067868164
H            3.92077951251081        1.78487411533285       -0.69951015345347
H            2.33911461034383        2.38288836000500        0.01217988855515
H            3.55779964555585       -1.96126247082930        0.04301935421068
H           -1.42312902581698        2.97885718108363       -0.02880274052911
H           -2.66085872532043        2.10376106095416       -0.94885136296029
H           -2.68658079329300        2.09468315831012        0.83551191454189
H           -1.42990759671963       -3.26650422542184        0.82945675812753
H           -1.38899720137957       -3.25218010882171       -0.96015407581048
H           -2.69660898432631       -2.43221542928479       -0.08616145860238
H            1.30048620215633       -3.14643233532120        0.00232238313507
