25
 energy: 35.052299164548 xtb: 6.6.1 (8d0f1dd)
C            3.59098205837044        2.88855409765896        0.14428579896829
N            2.35069653151333       -0.57591515759994        0.00613230530268
C            2.42791058672770       -1.87834831475406        0.01725026389771
N            1.18278994618497       -2.49720310762665       -0.00236181615894
C            0.26620943190120       -1.48952771107992       -0.02159568694896
C            1.00644744308922       -0.30445388426712       -0.01189344004350
C            0.33178861043356        0.97839577117998       -0.03492924548955
O            0.82454589000765        2.07826935568903       -0.04190523086073
N           -1.05682406367723        0.82206388472645       -0.04062915285232
C           -1.81508135381274        2.06586087646023       -0.03664397667415
C           -1.80608916109818       -0.33525275661384       -0.05211875020806
O           -3.01857226845679       -0.29901751552642       -0.06594981376059
N           -1.10166235198720       -1.54836885310135       -0.04988852684898
C           -1.90342754711760       -2.76299860601190       -0.07659192569177
H            3.99509963229417        2.93167677768597        1.12876933753152
H            4.19262481543553        3.00998713805344       -0.72974366634788
H            2.57090333298419        3.09410418747706        0.02123886492928
H            3.32405430562769       -2.47185599078205        0.01394548198299
H           -1.09828821192265        2.88035473601209       -0.02624557218899
H           -2.42412771533640        2.13855837113119       -0.93276365130599
H           -2.43485721477774        2.11600163179618        0.85294232853433
H           -1.78138521710741       -3.37318830459968        0.82052590034550
H           -1.72519405568979       -3.37523743774092       -0.96339553128792
H           -2.95220331432381       -2.44816841404915       -0.10639306886444
H            0.99301320753092       -3.49381069927338       -0.01219766652023
