25
 energy: 32.062300271347 xtb: 6.6.1 (8d0f1dd)
C            3.70954674317115        3.06490569636863        0.15129290177010
N            2.31238153757675       -0.65840243124812        0.00515060255100
C            2.36721853405098       -1.95913362634679        0.01191315782568
N            1.11003636328800       -2.54899299812678       -0.01127909858645
C            0.21566702722200       -1.52529483103396       -0.02523697534411
C            0.97158222454858       -0.35738605176500       -0.01267576928359
C            0.33670473945402        0.94017716253273       -0.02327800196969
O            0.86330474290455        2.02415255747679       -0.01528108971778
N           -1.06968523541744        0.81606896531200       -0.03573485503091
C           -1.83322872003224        2.05541821520841       -0.03991388609547
C           -1.83170880525964       -0.33301028238760       -0.05256450427168
O           -3.04397974837381       -0.28865626265030       -0.07225826381840
N           -1.14751432202934       -1.55376318284296       -0.04972466119823
C           -1.93089434274764       -2.77669833782104       -0.07651069127856
H            4.10783744979293        3.11114318702102        1.14072369935383
H            4.37875149204614        3.09994226404101       -0.69018517126119
H            2.68218211539141        3.21842311814727        0.02172624294710
H            3.25498248180060       -2.56536213249703        0.01947818472689
H           -1.14821122338466        2.89497812600367       -0.02719319751703
H           -2.45260048753434        2.10663252627640       -0.93345936380918
H           -2.46976507692428        2.09802824185032        0.84086938311201
H           -1.75215952584018       -3.37816311893071        0.81766367293181
H           -1.70479673355359       -3.36977293879570       -0.96557563916322
H           -2.98967304583155       -2.49398849784584       -0.10362914364910
H            0.90181618200635       -3.53894334646071       -0.02078380901263
