25
 energy: 37.225479668916 xtb: 6.6.1 (8d0f1dd)
C            3.53541328578728        2.79256030515821        0.14632279949080
N            2.36461194830507       -0.53040259679537        0.00791121503844
C            2.45444496075733       -1.83358397645037        0.02214159245771
N            1.21587844343867       -2.46659117830435        0.00189173475565
C            0.28778246167737       -1.46912934037414       -0.01986614955170
C            1.01819863955222       -0.27517677526307       -0.01194043059456
C            0.32363068183055        0.99614470879310       -0.03905871135575
O            0.80068058307198        2.10348094498827       -0.05154475170000
N           -1.05395627580965        0.82444205345975       -0.04095243345363
C           -1.81282884566050        2.07189037291719       -0.03575147470775
C           -1.79504685257721       -0.33829341159572       -0.05212435338726
O           -3.00865440315362       -0.31152152889700       -0.06657288292272
N           -1.08090501002426       -1.54623899376248       -0.04889153545261
C           -1.89370445182691       -2.75793518812642       -0.07775147318619
H            3.94971076540697        2.83631361040339        1.12226224132937
H            4.11718631455202        2.90565862964627       -0.73556622971630
H            2.52212455650410        3.03185531453228        0.04345585953343
H            3.35631843255333       -2.41958106542629        0.01546460589338
H           -1.07313659162980        2.87481996253792       -0.03690220518920
H           -2.42410931498401        2.14682060313899       -0.92976652354660
H           -2.41476514064639        2.13347429720185        0.86497285130984
H           -1.80447210091700       -3.37373438210514        0.81910911113036
H           -1.73117573848831       -3.37455523446439       -0.96347439662434
H           -2.93668073572658       -2.42187745320723       -0.11190521953513
H            1.03350250146738       -3.46436829908963       -0.00747824307182
