25
 energy: 42.942191191372 xtb: 6.6.1 (8d0f1dd)
C            3.31628884259111        2.20635824859561        0.12670113722979
N            2.39441686876281       -0.32193481940816        0.04952281770498
C            2.53639885889890       -1.59924827466092        0.04446871174185
N            1.35697787368431       -2.30428234491755        0.00600853625613
C            0.37552771909821       -1.35080973871518       -0.01772989819756
C            1.04362622647246       -0.11926276963113        0.00054519111268
C            0.27238917654980        1.10910477075457       -0.04068290047391
O            0.63970864665840        2.25589085133578       -0.09032773810137
N           -1.10836375031821        0.87532391252580       -0.04112326813094
C           -1.94357797448422        2.07665033135631       -0.03995459747112
C           -1.76168923653773       -0.32221230430758       -0.05027641668574
O           -2.97234592491040       -0.34725868365211       -0.05990483894272
N           -0.98305295034089       -1.49028508551557       -0.04931700057455
C           -1.74848075699296       -2.71604054298236       -0.07480358658974
H            3.73725647460143        2.26705821167447        1.07899072711170
H            3.87677672859605        2.28075309275351       -0.74817952055778
H            2.34348244943790        2.62395826802470        0.07314576303426
H            3.45730716739728       -2.15031498827678        0.01883334397419
H           -1.26080121400721        2.91635326695409       -0.03097610042926
H           -2.55590006749838        2.12256657858950       -0.93500967086512
H           -2.55185844381589        2.11430169507782        0.85633809150417
H           -1.60438847031277       -3.31879582900340        0.82182132377874
H           -1.54796558440485       -3.31067421551236       -0.96517806894817
H           -2.79950027145947       -2.39131330757017       -0.10487925885073
H            1.25743841729732       -3.31140803971654        0.00645889361316
