25
 energy: 33.162097273292 xtb: 6.6.1 (8d0f1dd)
C            3.64617828721113        2.97950857776390        0.14531990423325
N            2.33539189856396       -0.61892806099590        0.00444528138901
C            2.39996564820048       -1.92052275186437        0.01449233422344
N            1.14840659320248       -2.52465321835484       -0.00624042596548
C            0.24257882185761       -1.50770507175790       -0.02348238524480
C            0.99243479761264       -0.33203901138535       -0.01307591056101
C            0.33678672994730        0.95889115347287       -0.03089801695442
O            0.84684051710320        2.05094003428479       -0.03254376719533
N           -1.06225980086067        0.82077763013947       -0.03918528592575
C           -1.81801307768193        2.06476486226639       -0.03804635044387
C           -1.81929024507185       -0.32999741188733       -0.05245782478747
O           -3.03160105268346       -0.29008761805709       -0.06867791469775
N           -1.12374175410288       -1.54884257537793       -0.04953617582369
C           -1.91004246336633       -2.77178679063762       -0.07544542414941
H            4.04547177967387        3.02419178257885        1.13411607781015
H            4.27881076785379        3.07903571378355       -0.71560250754026
H            2.62245931030532        3.16320494806723        0.01379566052762
H            3.29177678705861       -2.52018818041306        0.01447549197106
H           -1.10460496304153        2.88228668978005       -0.02654752629968
H           -2.42702539927572        2.12254770391502       -0.93580771711034
H           -2.45832720132713        2.10730190316309        0.84110710503694
H           -1.74355390821995       -3.37389335735226        0.82009990760396
H           -1.69256935248159       -3.36710640018322       -0.96427744645346
H           -2.96358523291830       -2.48461460953095       -0.10241996685582
H            0.95086511424982       -3.51874870129317       -0.01583318179416
