25
 energy: 17.723418017504 xtb: 6.6.1 (8d0f1dd)
C            3.15150112437204        1.49056515391682        0.09883289953343
N            2.44171585658546        0.05866549420459        0.04206329919660
C            2.67137189648896       -1.36632369529275        0.06004195031251
N            1.45398982546131       -2.06771440219835        0.01241550218348
C            0.44344466268897       -1.17630517700061       -0.01442023508285
C            1.02052679693916        0.09988173769237        0.00403508643648
C            0.19391616352802        1.24965025837271       -0.01788762695291
O            0.55055029729000        2.43019389265315       -0.03475622432317
N           -1.19873761879363        0.95585006292757       -0.03530138512660
C           -2.08667451242010        2.10727357704386       -0.04614148616793
C           -1.78140380564574       -0.26478644194051       -0.05025076655656
O           -2.98761661776375       -0.40913491283150       -0.06876403250936
N           -0.92419517698664       -1.38471487654371       -0.04434998555380
C           -1.59507974390448       -2.66653138638810       -0.06563407859942
H            3.68590229711399        1.69612919844427        1.03691106859186
H            3.91495372965474        1.63277429940025       -0.68636462501492
H            2.36620733112620        2.25610536148720       -0.00416671404576
H            3.58762231853075       -1.90602485427417        0.04278842432600
H           -1.46202073035166        2.99630036276615       -0.02669420442595
H           -2.69229100901565        2.10729964641373       -0.94859671948170
H           -2.72088498596379        2.09656104643686        0.83477889243958
H           -1.38347192994208       -3.25324659284114        0.82945411194071
H           -1.34326919004063       -3.23851894248638       -0.95960372215807
H           -2.66802987430691       -2.45018009330415       -0.08578288229514
H            1.30758428402940       -3.07429156240603       -0.00020887518897
