25
 energy: 39.400729613910 xtb: 6.6.1 (8d0f1dd)
C            3.46907105591021        2.70294098449066        0.14285419311624
N            2.38173898852080       -0.48669016741278        0.02333043866738
C            2.47275677727755       -1.78895050952357        0.02980638445518
N            1.24382926136097       -2.43419201817092        0.00474004150484
C            0.30841577893386       -1.44428471685431       -0.01947034968754
C            1.03088645388290       -0.24376097500883       -0.00947580076381
C            0.31296306300237        1.01447772835954       -0.04062069601425
O            0.77177840447102        2.13000713316393       -0.05845335148568
N           -1.05371581887097        0.83225567414305       -0.03829613430416
C           -1.81478598315440        2.07518991576819       -0.03410815931367
C           -1.78362901226276       -0.33737057946901       -0.05169615638923
O           -2.99694831261902       -0.31020422544119       -0.06465218391542
N           -1.06004457642263       -1.53870603349473       -0.05105757415954
C           -1.87272408444016       -2.75136112817139       -0.07847627337526
H            3.88773074231872        2.75820184630395        1.11052611391949
H            4.02988091542595        2.83774100743649       -0.74200431874116
H            2.46016149392623        2.97452481072774        0.05169513723817
H            3.37568788372477       -2.36921100381131        0.01596269947926
H           -1.08564177192137        2.88787552573727       -0.03689684035421
H           -2.42414637848816        2.14663990161176       -0.92916802035226
H           -2.41932834978989        2.13773250871485        0.86639282817611
H           -1.76868780011653       -3.36129851920586        0.81951340251536
H           -1.71130957949009       -3.36855329568607       -0.96367145062938
H           -2.91355786596973       -2.40345896718040       -0.11159284445451
H            1.07064424891504       -3.43307190502188       -0.00422501468707
