25
 energy: 30.698156151516 xtb: 6.6.1 (8d0f1dd)
C            3.76239575192559        3.24066432344048        0.14166680226984
N            2.28326397317371       -0.73602594380519        0.01245351509191
C            2.31313276545265       -2.03147039957804        0.00810974758818
N            1.05900952592995       -2.60580054047115       -0.01581518889185
C            0.18438183988979       -1.56405015081158       -0.02676856350121
C            0.96025632510348       -0.41143121718251       -0.00789333321833
C            0.34843181584467        0.89186181716230       -0.01481909068343
O            0.89172054985937        1.96993478843304       -0.00500065701096
N           -1.05894367384122        0.79358250715383       -0.03251017526872
C           -1.80491775802592        2.04545370700350       -0.03855506050718
C           -1.83813612920331       -0.34210753833279       -0.05244246336980
O           -3.04696791129182       -0.30943095966534       -0.07060927310073
N           -1.17105375728194       -1.57284716595208       -0.05114166581125
C           -1.94170537070305       -2.79999383492249       -0.07571153384677
H            4.17957712204479        3.32655155030783        1.12003264722659
H            4.42084233957491        3.29153333133247       -0.69934988150130
H            2.70977464796902        3.17641452590712       -0.00314095936524
H            3.19201889818139       -2.63378628773430        0.01544028567194
H           -1.08547100678292        2.86128350259596       -0.01945861304451
H           -2.41451387676117        2.10667400326206       -0.93740646770353
H           -2.46520826325702        2.09480300718516        0.82815367369213
H           -1.75575314271239       -3.39310967687186        0.82053464409436
H           -1.71196164951235       -3.38399700323042       -0.96795109914417
H           -2.99060934665549       -2.53324768211180       -0.09637478024352
H            0.83100388216349       -3.58945942910024       -0.03252104437977
