25
 energy: 42.509273763243 xtb: 6.6.1 (8d0f1dd)
C            3.24665542337856        2.02597868288129        0.12752170989498
N            2.41080921854258       -0.22910141396409        0.04551455103904
C            2.57575014187581       -1.51540174403074        0.05528329950311
N            1.39887232862359       -2.22699950458172        0.01319030653357
C            0.40342300694900       -1.28984633935481       -0.01551054341939
C            1.04724790714388       -0.04718117025989        0.00035215352709
C            0.24986528936627        1.16659675534428       -0.03263926534562
O            0.59070685158868        2.32302592682246       -0.06704472038348
N           -1.13478917413554        0.90539924305563       -0.03998914599363
C           -1.99912499491332        2.08212692209262       -0.04251241009765
C           -1.76400841159494       -0.30178331530726       -0.05089208947960
O           -2.97330144028566       -0.37031950791977       -0.06227074741389
N           -0.95648383517145       -1.45003123602122       -0.04753962707324
C           -1.69136729025224       -2.69286493653275       -0.07032834055781
H            3.70399769104654        2.05320245361289        1.07184101896218
H            3.87224789956931        2.02758126437787       -0.71906005577381
H            2.30720682576463        2.52103441946139        0.06917568167256
H            3.51165998081322       -2.05852885215237        0.04211022090548
H           -1.34520898739472        2.94601820361885       -0.02976753528446
H           -2.60981138582928        2.10569712203826       -0.93973199072251
H           -2.61718404227988        2.09714254379396        0.84830957866993
H           -1.52113762603778       -3.29002464348628        0.82570819965784
H           -1.47173682057326       -3.27846784648782       -0.96259797744232
H           -2.74728510633284       -2.39893636966598       -0.09475835713637
H            1.30199327223517       -3.23337574204417        0.00773561614091
