25
 energy: 30.776920703165 xtb: 6.6.1 (8d0f1dd)
C            3.77972593034117        3.28643460966988        0.12772042629914
N            2.27816621346822       -0.74535810578139        0.01679432331939
C            2.29985684450229       -2.03530224029567        0.00758341813245
N            1.04116141820881       -2.59892993296629       -0.02320299917844
C            0.17966873185030       -1.54918331124080       -0.02602691049726
C            0.95224868816888       -0.39933202002936       -0.00068451724002
C            0.33768265095919        0.90206560283840       -0.00426284303577
O            0.88280289765399        1.97959046736406        0.00992551736417
N           -1.07306312178696        0.80520929908578       -0.03115244914122
C           -1.82647409379997        2.05279413016760       -0.04297867084889
C           -1.84269338127884       -0.33457818367059       -0.05191508651365
O           -3.05142654497167       -0.31224422379797       -0.06972285623188
N           -1.17239524090481       -1.55828348637734       -0.05010619845975
C           -1.92095612761027       -2.79257901928252       -0.07402794173425
H            4.21075847633344        3.31560309525352        1.10944917046421
H            4.46431501676756        3.17468603035738       -0.69817450614790
H            2.70804231749407        3.16678206165344       -0.00228367977243
H            3.20818667649899       -2.60445329612728        0.01602603488785
H           -1.07590943339708        2.84859140914157       -0.02138318762601
H           -2.44438197950168        2.10491868677054       -0.93952699699033
H           -2.49403016498052        2.09551257234106        0.81947005631389
H           -1.70534637880500       -3.37808743443467        0.82115141474396
H           -1.66616189230774       -3.36643795916039       -0.96633181069131
H           -2.97714298384883       -2.52700352886866       -0.09660162563789
H            0.81349393094508       -3.57935340464853       -0.03812247352217
