25
 energy: 42.021599480713 xtb: 6.6.1 (8d0f1dd)
C            3.40277562761629        2.50118951077640        0.13631174934844
N            2.38208001122871       -0.42712373474794        0.05043606022994
C            2.49210383729055       -1.71678529763536        0.04474112150536
N            1.28772778576234       -2.38656738787056        0.00707976246405
C            0.33461356649642       -1.40926801575872       -0.02057730915265
C            1.04153692455595       -0.20249717307989       -0.00467460783411
C            0.28314273829036        1.04089978204587       -0.04532062390136
O            0.70938358983339        2.16954165020675       -0.08429199442992
N           -1.08199296028295        0.83536426859840       -0.04368098572157
C           -1.86439043372367        2.07102500398295       -0.03709943077371
C           -1.77785883967836       -0.34784106385095       -0.05079507695297
O           -2.99001782733826       -0.34031195743453       -0.06190146897551
N           -1.02688623122957       -1.53333013398493       -0.05100241774652
C           -1.83102297060107       -2.74102193308843       -0.07844625464584
H            3.82323737455262        2.57080489458062        1.09233029837519
H            3.94377485438162        2.64398166862660       -0.74733676377524
H            2.40897925161575        2.82950986926196        0.06062611960098
H            3.39691922872037       -2.27347348843695        0.01636768216861
H           -1.14092117027354        2.88357948642227       -0.03509113730991
H           -2.47675754017446        2.13884588650581       -0.92959135466883
H           -2.45400985884196        2.13025216402595        0.86908865242013
H           -1.73127760720010       -3.35471195887605        0.81868145479484
H           -1.66217350025451       -3.35418436426396       -0.96459705817296
H           -2.87059259476232       -2.37531964272225       -0.11613098825386
H            1.14238486323006       -3.38723159046619        0.00344947281297
