25
 energy: 103.556406460985 xtb: 6.6.1 (8d0f1dd)
C            3.32261046913163        1.16787893853846        0.08421469297469
N            2.37095819294443        0.08177618180335        0.06266205117618
C            2.71368317176662       -1.19886537986295        0.04997192671907
N            1.60393516617575       -1.96558472897428        0.04408886026847
C            0.45669503819169       -1.11649898646662        0.06751715316402
C            1.01335710692522        0.19581288804700        0.06984396327052
C            0.24952645453715        1.44756282292457        0.04767367293590
O            0.80070930480825        2.55715134424715       -0.06335901434313
N           -1.02914993856530        1.20309604957334        0.27995337651084
C           -2.01216066176014        2.22147348873257        0.19987713940661
C           -4.10004519772135        0.38188983164835       -1.12499183381663
O           -4.14804819375965       -0.73448976099627       -0.95886667966759
N           -0.77552892606732       -1.43069349456603        0.08699789022611
C           -1.27811667378699       -2.77252310945583        0.07039527606260
H            3.81998367579608        1.21030571732877        1.05471583434852
H            4.07606352144725        1.02797502076370       -0.69125616730770
H            2.77684052509535        2.09884209480051       -0.08197268388681
H            3.71772415965013       -1.57282300237734        0.03961073596287
H           -1.67681849428070        3.11965254455497       -0.33632733752562
H           -2.88712696984076        1.77894895766222       -0.29997703905625
H           -2.34647425448394        2.49774936604001        1.20639840188601
H           -0.92224915251181       -3.37240875278570        0.92233402141495
H           -1.01349882946888       -3.29961650142610       -0.85529831550380
H           -2.37049798966585       -2.71235717304307        0.11853583593048
H            1.58531323659445       -2.97135249112068        0.03923959807915
