25
 energy: 0.707654287592 xtb: 6.6.1 (8d0f1dd)
C            3.25807766039577        1.17456199021417        0.08954385981314
N            2.29765174103860        0.11231519743339        0.04138424852197
C            2.59642125617417       -1.24188567343871        0.05618697814795
N            1.39648417240738       -1.93403815601790        0.03767577303752
C            0.35227662574341       -1.06268736194903        0.00313779035593
C            0.89649407814611        0.21202554129228        0.02416661052779
C            0.06959020299272        1.34173366918410       -0.03484752424547
O            0.46977170527236        2.51192769853438       -0.04414461543826
N           -1.36474978924813        1.02283946214379       -0.08252805374766
C           -2.22099183894308        2.18225382331539        0.00951574684203
C           -1.96767206216946       -0.18757294996955       -0.27373180676949
O           -3.14988862843122       -0.40133165387501       -0.37461669975374
N           -1.01104514151812       -1.27881184790877       -0.08017238080564
C           -1.45067203993817       -2.65654881588627       -0.04119873977292
H            3.75060783302866        1.21702255959162        1.06732067636095
H            4.03087717563786        1.03438591399287       -0.67496942835501
H            2.72839611471710        2.10924864665559       -0.08244797151868
H            3.58723390209096       -1.64973166700626        0.04137652081825
H           -1.62770228089136        3.08740705513783       -0.15901928078492
H           -2.98371051604107        2.04913703316519       -0.74435138777328
H           -2.71701883930086        2.21637050776838        0.98199804488012
H           -1.09166251895710       -3.18444424232322        0.85130184647590
H           -1.11448886777803       -3.19868043100552       -0.93062743969025
H           -2.53521984186606       -2.62917256225663       -0.02676321838227
H            1.38557119339201       -2.94045218163750        0.03223643661141
