25
 energy: 102.762906476008 xtb: 6.6.1 (8d0f1dd)
C            3.32824852414729        1.16204196188736        0.08557363045877
N            2.38271994260315        0.07383872356718        0.05537607648175
C            2.71703936548520       -1.21108197938746        0.04743319321630
N            1.59951397532859       -1.96358894025560        0.05433918874360
C            0.46410803508139       -1.11379895867557        0.06356471022609
C            1.02248606687862        0.19574311004705        0.07384682568147
C            0.26275737613609        1.45990740507745        0.06025833245725
O            0.82323569614607        2.56190785902592       -0.06198866198282
N           -1.02418105608482        1.24271504450157        0.26365839665929
C           -2.02163251292600        2.23629120854564        0.17942502809528
C           -4.24079866340836        0.37842451726069       -1.10761867333184
O           -4.11918892797750       -0.73964227351601       -0.98592333921184
N           -0.77497500507456       -1.42156786431570        0.03898821280144
C           -1.27569484835222       -2.75636443910458        0.05042726700965
H            3.82206933325518        1.20316628439859        1.05814946908652
H            4.08115249191897        1.02362198320204       -0.68995154813736
H            2.77845215995185        2.09378663542786       -0.07802914099568
H            3.72251188438617       -1.58307685643988        0.03062846593510
H           -1.71164694773309        3.13789855051992       -0.35715171521645
H           -2.88943380852989        1.78685458402699       -0.33321992095566
H           -2.36192784065437        2.50174363068727        1.18856097068197
H           -0.92660964136627       -3.34509290162400        0.90648673286833
H           -1.01708391687977       -3.29896994636129       -0.86744630644321
H           -2.35874793464725       -2.68051539373895        0.10540137782070
H            1.58440939529191       -2.96978798231642        0.03659509430109
