25
 energy: 114.207967656846 xtb: 6.6.1 (8d0f1dd)
C            3.29884541458464        1.15113612655237        0.12529687376381
N            2.34109482479516        0.07014728825111        0.07123361625194
C            2.69359584910709       -1.21298277712945        0.07561670010383
N            1.59275361642760       -1.99374732726322        0.06739699713590
C            0.43665315269034       -1.16138994803043        0.05772597355489
C            0.96976271045154        0.16057544007840        0.07965296115719
C            0.12582598986284        1.37048573788213        0.03132685363595
O            0.65592488325942        2.48363021805906       -0.06601223085827
N           -1.25531184531645        1.10165378505594        0.09875371486383
C           -2.08287691949807        2.27863243235868        0.18070282594512
C           -3.27725718946031        0.52312539558673       -1.16990469379842
O           -3.87021840391132       -0.40650259143987       -0.89084170601684
N           -0.79759139848139       -1.45291569984113        0.02654011618918
C           -1.29776948142063       -2.78098076678034        0.03064308774449
H            3.79148776332464        1.16857958997487        1.10065632297584
H            4.06217471907692        1.01107137781499       -0.64278199157942
H            2.78228978963253        2.09625658879844       -0.03046322674818
H            3.70181918767765       -1.58162864210230        0.07608719707898
H           -1.82054593115755        3.08378887629620       -0.52221165887185
H           -3.14016051438442        2.05418857658490       -0.00917313345917
H           -1.96689711616016        2.64886155262055        1.19861394003266
H           -0.89409418030039       -3.32229750348463        0.88810119016317
H           -1.02915202907345       -3.31140200561797       -0.88941147882233
H           -2.38510885679825       -2.74622671707213        0.10271868898636
H            1.58325084622943       -2.99952573282082        0.04839740362828
