25
 energy: 102.905814984290 xtb: 6.6.1 (8d0f1dd)
C            3.32337554233678        1.16458154994356        0.08671774937070
N            2.37852435941457        0.07462957097541        0.05929601733779
C            2.71749764126263       -1.20713563197633        0.04585575642715
N            1.60328209644837       -1.96515113586840        0.04980369573848
C            0.46058154198155       -1.11611599865532        0.06735117829747
C            1.02035468986618        0.19455238596829        0.06987999992368
C            0.26541065765904        1.45882885928490        0.05797994357281
O            0.82772261360783        2.56419062645773       -0.05400497522907
N           -1.01589342843561        1.22271579063627        0.26056662025500
C           -2.01624248198138        2.21692265821474        0.17570200674207
C           -4.24236244827425        0.37418957250089       -1.09550269672470
O           -4.03527429984942       -0.73615179004623       -1.00172310683440
N           -0.77560279688353       -1.42666735080661        0.07831262206402
C           -1.27984949529006       -2.76234350363609        0.06669898291493
H            3.82026806819836        1.21038734610641        1.05753164107707
H            4.07642419018727        1.03094065874925       -0.69115290475693
H            2.77137563113512        2.09592964913034       -0.07575617017326
H            3.72199592464481       -1.58017861879525        0.02599170496796
H           -1.72003736010877        3.11679331867257       -0.37078285262305
H           -2.88626157453513        1.76217518253558       -0.31560262355099
H           -2.30026328932056        2.50829365129634        1.18621039518346
H           -0.92594672874168       -3.35798371892707        0.91842934324562
H           -1.01269540403684       -3.28784130958907       -0.85954487955383
H           -2.37009101251964       -2.69494379123769        0.11675345906700
H            1.57392243766303       -2.96970081222881        0.03136440499631
