25
 energy: 0.000000000000 xtb: 6.6.1 (8d0f1dd)
C            3.23720132972391        1.16630909158653        0.08434468864950
N            2.29877796055224        0.07527476373246        0.03981602671198
C            2.58028186251803       -1.21425391179017        0.03006175752192
N            1.43813944744728       -1.93419254010258        0.00098261751768
C            0.39035684826767       -1.05887462812143       -0.00790371763344
C            0.93510047688824        0.21347817468824        0.01709077332874
C            0.09450143016486        1.40504290868848       -0.00410946993748
O            0.49712746915594        2.54126690785742       -0.00342325656480
N           -1.25076628431515        1.06271869620815       -0.03085477937476
C           -2.21907191394203        2.15522079838987       -0.05001256521996
C           -1.81739470187490       -0.20012724136556       -0.04692818139228
O           -2.99983858926755       -0.37846413507442       -0.07008877579474
N           -0.92618577614240       -1.30210203518959       -0.03682761236648
C           -1.46982251276835       -2.64643077634382       -0.06029819901142
H            3.71247229913541        1.21471443890471        1.06488839270555
H            4.00791460421487        1.03430799217987       -0.67357688121503
H            2.69909982127087        2.09770098766290       -0.09130154035862
H            3.56654087521359       -1.63682977417947        0.04233139674524
H           -1.67107945562430        3.09322822573871       -0.02552706696334
H           -2.82428927394145        2.09428605349656       -0.95318074103337
H           -2.87644002486466        2.07745706351925        0.81450059976605
H           -1.17061985538665       -3.19584861009707        0.83242224714061
H           -1.14560246782873       -3.17511580834413       -0.95688266944647
H           -2.55549768731684       -2.55659960601237       -0.07459039105944
H            1.38130842369251       -2.94313824728853       -0.01389874052104
25
 energy: -0.100852432694 xtb: 6.6.1 (8d0f1dd)
C            3.23271761290742        1.18021759242918        0.08600560746136
N            2.29476174187590        0.08958532241929        0.03776206840774
C            2.58836792280487       -1.24366389264543        0.03038545231320
N            1.44166847347684       -2.00769004299671        0.00010934057742
C            0.40401698695311       -1.08546992852420       -0.00835936209255
C            0.92121856682280        0.21203510982321        0.01516223013295
C            0.09556353319058        1.40252704573501       -0.00457611096926
O            0.49165973444294        2.56986073176908       -0.00327723957669
N           -1.26730667982055        1.06828163908913       -0.03083351385567
C           -2.23334433766212        2.16578232529146       -0.05009865621705
C           -1.82196341709775       -0.18621941712253       -0.04708616372415
O           -3.01887241649701       -0.36654795550625       -0.07052969807840
N           -0.93248059872505       -1.29415718604771       -0.03676185716888
C           -1.46960596267621       -2.62875874731108       -0.05976525074257
H            3.71555423236766        1.23072487331813        1.06615237021727
H            4.00418335752829        1.04691856699073       -0.67429200891055
H            2.70354873280420        2.11687136246572       -0.08955710374196
H            3.57133462822238       -1.64368392845882        0.04355958725582
H           -1.68468633613712        3.10538981267940       -0.02548786016187
H           -2.84195632730451        2.11233022950954       -0.95292028117013
H           -2.89495806221827        2.09543826069779        0.81326512708296
H           -1.15200722598069       -3.16983232838085        0.83265289502520
H           -1.12760563937326       -3.14900616333100       -0.95561067423973
H           -2.55443987061442       -2.54182121279685       -0.07375596303645
H            1.44684565568245       -3.09008328035223       -0.01510902259340
25
 energy: 11.868026338111 xtb: 6.6.1 (8d0f1dd)
C            3.22737393303257        1.18590790618103        0.08701546348312
N            2.28746066259611        0.09637988752924        0.03445214442655
C            2.58782054198379       -1.26601499280172        0.03141831169062
N            1.44229503569188       -2.07786100390215       -0.00038403228078
C            0.41529556105120       -1.11431556588645       -0.00903260959695
C            0.90504492548269        0.20134655251853        0.01284657293188
C            0.09528612521379        1.38936964022117       -0.00484972443247
O            0.48024759616412        2.57012803989260       -0.00269975273220
N           -1.28790468962637        1.08095572521651       -0.03073085988997
C           -2.24925409628577        2.18377593701851       -0.05023656887490
C           -1.82412827775454       -0.16598778123090       -0.04709417839553
O           -3.02579885236503       -0.35448971405259       -0.07100830825147
N           -0.93962508297086       -1.27600727754190       -0.03648950386166
C           -1.46898678901982       -2.60547043241895       -0.05912117766912
H            3.71585245917280        1.24337747162821        1.06638937397953
H            4.00024584468493        1.05883112482724       -0.67523350031866
H            2.70551447316139        2.12855958139975       -0.08733152903236
H            3.57493883001499       -1.63726286276587        0.04527418542721
H           -1.70054653341507        3.12448593573582       -0.02524623312758
H           -2.86102330842829        2.13468913591261       -0.95244875140112
H           -2.91514844360587        2.11754776750614        0.81143590511711
H           -1.13303462660553       -3.14001459701872        0.83173843073777
H           -1.10959419848530       -3.11916982414831       -0.95313448320528
H           -2.55336349441676       -2.53098541292779       -0.07273976826583
H            1.54324670970139       -3.23874645214799       -0.01575549426336
25
 energy: 21.410865842126 xtb: 6.6.1 (8d0f1dd)
C            3.22542346247730        1.18604457015482        0.08716920488024
N            2.28574572358079        0.09642910449388        0.03231058743615
C            2.58401883553916       -1.27491487788730        0.03235829506734
N            1.43990874011372       -2.10472760216669       -0.00034060105348
C            0.41869389600744       -1.12495990041571       -0.00942693241857
C            0.89965390627919        0.19467555258795        0.01189382322712
C            0.09519679489424        1.38422912604106       -0.00468637041005
O            0.47502834129347        2.56494900851473       -0.00221321734233
N           -1.29821471244850        1.09242785147845       -0.03063521487922
C           -2.25791424753235        2.19533038220485       -0.05041876132640
C           -1.82623716908678       -0.15513595350867       -0.04708503757749
O           -3.02704574778619       -0.35280743597623       -0.07140260032882
N           -0.94213258019804       -1.26208233351060       -0.03612440153545
C           -1.46735501059708       -2.59361050731478       -0.05866712161368
H            3.71384947960583        1.24690882735299        1.06656009411592
H            3.99824433318401        1.06396817638264       -0.67593396767365
H            2.70469815796232        2.13093887201474       -0.08629765525449
H            3.57723056516479       -1.63173884178418        0.04571668674317
H           -1.71091296905335        3.13671584732051       -0.02503858476997
H           -2.87041482806220        2.14581994739907       -0.95247218832650
H           -2.92533534534151        2.12838668018787        0.81038717378039
H           -1.12297163499813       -3.12447333866569        0.83133052137903
H           -1.10020356890662       -3.10364509965683       -0.95179298304717
H           -2.55193069323441       -2.53016779274323       -0.07205137942293
H            1.59519057611533       -3.31953147375965       -0.01610545745452
25
 energy: 27.747819401997 xtb: 6.6.1 (8d0f1dd)
C            3.22606482951841        1.18611595086364        0.08723880668600
N            2.28683254021408        0.09653175618000        0.03113788814605
C            2.57963307186268       -1.27660192288718        0.03346924068788
N            1.43534265368003       -2.10826371937543        0.00008169168671
C            0.41779919922096       -1.12457409458659       -0.00957439546438
C            0.89929193255763        0.19386160595658        0.01172049865486
C            0.09525997127464        1.38514729989708       -0.00459817386900
O            0.47221138431682        2.56368636619000       -0.00202602718047
N           -1.30177220624794        1.09897392941350       -0.03060739477610
C           -2.26114994246405        2.19971978344403       -0.05053240762521
C           -1.82852563580866       -0.15084558133215       -0.04708637542810
O           -3.02767895799968       -0.35387093728544       -0.07158340235073
N           -0.94332121466722       -1.25348072782829       -0.03578092322071
C           -1.46599218454777       -2.58900008868495       -0.05844763631676
H            3.71332640178239        1.24784391376569        1.06681160828083
H            3.99850661673846        1.06581117628779       -0.67598192869397
H            2.70509038285026        2.13162255249021       -0.08620129963999
H            3.57584836381169       -1.62787509734890        0.04507852646185
H           -1.71553282949242        3.14144700221990       -0.02498501650649
H           -2.87334323589881        2.14862041435971       -0.95279014718642
H           -2.92853832949215        2.13102518238386        0.81025648622792
H           -1.11883428155319       -3.11799763274232        0.83119469336522
H           -1.09628293475806       -3.09710351301468       -0.95128292206761
H           -2.55057166345613       -2.53162448368828       -0.07180922452300
H            1.61855037353050       -3.37014034593375       -0.01666825315380
25
 energy: 35.825651091301 xtb: 6.6.1 (8d0f1dd)
C            3.22787066671621        1.18776777376413        0.08718353516107
N            2.28965092220124        0.09809705212679        0.02976066675034
C            2.57275936648764       -1.27467120359612        0.03669371882972
N            1.42717348594948       -2.09889894262473        0.00195334865626
C            0.41388542477536       -1.11767952810206       -0.00996321051944
C            0.90079301706963        0.19721110269839        0.01193351187759
C            0.09515101643992        1.39005266833622       -0.00445538942387
O            0.46856644241555        2.56573261544123       -0.00210277487181
N           -1.30358601744053        1.10499347597511       -0.03053449233828
C           -2.26303662161158        2.20233367333338       -0.05057776774304
C           -1.83225716679397       -0.14783244705221       -0.04709016705488
O           -3.02910455672737       -0.35433236021886       -0.07162463291521
N           -0.94526254361775       -1.24387929775889       -0.03553293390079
C           -1.46453071249858       -2.58539724280192       -0.05839845748797
H            3.71341387518531        1.24954018292170        1.06706873409447
H            3.99996773945671        1.06793487969316       -0.67571438496364
H            2.70645034562796        2.13347182177336       -0.08677757362173
H            3.57144010684286       -1.62247461312508        0.04313216745757
H           -1.71959279128222        3.14486124646615       -0.02495569641607
H           -2.87501968372598        2.14976417494047       -0.95299368397390
H           -2.93026973902856        2.13203337139060        0.81032612253519
H           -1.11526475355607       -3.11193880455611        0.83106406052427
H           -1.09279597657314       -3.09098205071655       -0.95109111207607
H           -2.54893024428244       -2.53284512299200       -0.07179026537101
H            1.64474270294279       -3.45383363657218       -0.01847941101417
25
 energy: 32.940807727454 xtb: 6.6.1 (8d0f1dd)
C            3.23136884809088        1.19311988797597        0.08679579459129
N            2.29073662021969        0.10775478413893        0.02662366944828
C            2.54406728682398       -1.26420047976136        0.04503354247314
N            1.40238212028620       -2.07456224578877        0.00943263939996
C            0.40399784228934       -1.09665810146016       -0.01117941035784
C            0.89893692688007        0.21222001196633        0.01261620634167
C            0.09471012235297        1.40534370034463       -0.00358991846822
O            0.45523029739516        2.57381870101903       -0.00277487519417
N           -1.31060306275874        1.12498386950858       -0.03021626707407
C           -2.26885795931986        2.21272407467878       -0.05072672575337
C           -1.83980714474422       -0.13655077850125       -0.04710298342450
O           -3.03120043323434       -0.35253592826543       -0.07168117060970
N           -0.95161893595777       -1.21339674895415       -0.03528190509361
C           -1.46148164407459       -2.57219774944762       -0.05820584666581
H            3.71305284537068        1.25267886296748        1.06714302193676
H            4.00138165383832        1.07174134831394       -0.67599529524217
H            2.71175295903985        2.14146595951119       -0.08767914043840
H            3.55156319947868       -1.60205969388829        0.03936045048429
H           -1.72848276156748        3.15571424552937       -0.02489634095242
H           -2.87975268688128        2.15540137137493       -0.95381237507123
H           -2.93525525234270        2.13744609401509        0.81068219349620
H           -1.10589655776858       -3.09505077696248        0.82894323402830
H           -1.08379875948530       -3.07439542633564       -0.94850953406852
H           -2.54559949050200       -2.53418622639210       -0.07161647688461
H            1.75538827154347       -3.73958996684294       -0.02632857470667
25
 energy: 25.016717052351 xtb: 6.6.1 (8d0f1dd)
C            3.23314253397338        1.19660987654876        0.08700289320888
N            2.28507397247033        0.11525953491998        0.02683098620929
C            2.49797753026022       -1.24397587081799        0.04575967126561
N            1.37578512876029       -2.02362932493350        0.01375608660455
C            0.39369360133278       -1.06103912287004       -0.01058439510597
C            0.89835409658539        0.23765454391762        0.01325655114493
C            0.09113682197493        1.43028722265419       -0.00407763634111
O            0.44062968181913        2.58481007285589       -0.00289033086419
N           -1.31020823102534        1.14532416778512       -0.03026358346488
C           -2.27179798371107        2.22178055003383       -0.05095244290945
C           -1.84297091213518       -0.13047553692927       -0.04697269345307
O           -3.02973200909249       -0.34707691376675       -0.07175998136047
N           -0.95378613845934       -1.18563353221603       -0.03385856537655
C           -1.45751717409708       -2.56134731691220       -0.05769648183547
H            3.71185560626348        1.25307607066671        1.06661359359753
H            4.00071089314899        1.07218718828385       -0.67557512293866
H            2.71810594697575        2.14889248927417       -0.08807598531593
H            3.51609515054907       -1.58340192545758        0.03782842701185
H           -1.73650189932557        3.16637550806900       -0.02514368143482
H           -2.88219564010276        2.15920177437391       -0.95409083351944
H           -2.93776320768449        2.14120157863172        0.81044608520632
H           -1.09666286015504       -3.08186769234692        0.82603330471128
H           -1.07476753827314       -3.06116247582829       -0.94467447243968
H           -2.54183953389539       -2.53399975958693       -0.07133032444803
H            1.88539646881561       -4.07002231760521       -0.03254715595790
25
 energy: 20.701971505799 xtb: 6.6.1 (8d0f1dd)
C            3.23201187404112        1.20122376768100        0.08737556145020
N            2.27160739130555        0.12403053695933        0.03311640023670
C            2.46190415315499       -1.21141064337080        0.03405089520101
N            1.36268223701736       -1.94261117549424        0.00859141429823
C            0.38722850864342       -1.01093419796720       -0.00656776127500
C            0.89870820613546        0.27920445275810        0.01285791097359
C            0.08058813178321        1.46287236691414       -0.00642048187512
O            0.43413055548142        2.61484419684919       -0.00197143517033
N           -1.29763682045534        1.14707035016340       -0.03082551976803
C           -2.26890827127138        2.22086819956887       -0.05096976553407
C           -1.83922156987069       -0.13720282891122       -0.04669986143095
O           -3.03056692146952       -0.32880408079256       -0.07178613530595
N           -0.95212952481423       -1.18635810820454       -0.03144327206512
C           -1.45475191719046       -2.56213509213911       -0.05710170985601
H            3.71163048466204        1.25012959960788        1.06602267793137
H            3.99883639196390        1.06660252638765       -0.67482484508098
H            2.72333171881938        2.15451683697400       -0.08837895984228
H            3.47742980454564       -1.58124589093098        0.04363567226106
H           -1.73743171109503        3.16861523172459       -0.02556067741377
H           -2.87953129521431        2.15686907184530       -0.95344727783372
H           -2.93450823941182        2.13905541398855        0.81014046457120
H           -1.09611709172806       -3.08450652911625        0.82593047720711
H           -1.07374080419787       -3.06261408024546       -0.94388570895763
H           -2.53948513042444       -2.52757161971835       -0.07121197377527
H            1.97615414456210       -4.36147951578725       -0.03359217675166
25
 energy: 20.074594872341 xtb: 6.6.1 (8d0f1dd)
C            3.23520949481165        1.21633647130849        0.08557769222027
N            2.26613431546683        0.14547991218704        0.03748358837962
C            2.45617370122681       -1.18335375978661        0.03106639201248
N            1.35275657658652       -1.89116791443424        0.00599569445172
C            0.37895013026784       -0.96823345015368       -0.00508171106775
C            0.89810053360158        0.31826055368367        0.01479722163282
C            0.06705281095130        1.48901411281818       -0.00390509378283
O            0.42829152708473        2.64632002611764       -0.00130561133553
N           -1.29164142543427        1.14769106506719       -0.03023372244046
C           -2.27044925615094        2.22123936178512       -0.05089226808679
C           -1.83901994397117       -0.13791070421973       -0.04692165934834
O           -3.03619081582508       -0.30644835452546       -0.07228029112047
N           -0.95816007843256       -1.18917528605563       -0.03273060614973
C           -1.45276719478308       -2.55938298810114       -0.05780519977846
H            3.71459778313657        1.25515422975929        1.06542486493312
H            4.00145113022441        1.06751832323207       -0.67559233111820
H            2.73060624698950        2.16815876889980       -0.09080351666966
H            3.46177152156231       -1.57952891430254        0.04621640335627
H           -1.73817013716275        3.16929803554036       -0.02528819462685
H           -2.87877402261829        2.15406269839390       -0.95388980333106
H           -2.93359834926946        2.13598577023242        0.81086995960654
H           -1.09681178246014       -3.08596340388980        0.82533805970950
H           -1.07424018459807       -3.06385672810256       -0.94466192689249
H           -2.53825119899277       -2.52156581976498       -0.07180468241823
H            2.02919292276102       -4.65890321694475       -0.03253934594094
25
 energy: 19.982043797566 xtb: 6.6.1 (8d0f1dd)
C            3.23778959061404        1.22944952882885        0.08638906631722
N            2.26365800741395        0.16616317716805        0.03987452050132
C            2.46464143845524       -1.16439919697615        0.03025359334175
N            1.35010554190832       -1.86927591328435        0.00366512256342
C            0.37520553140936       -0.94546616084814       -0.00510639542607
C            0.89749294452826        0.33958714790617        0.01608654137180
C            0.05834794082081        1.50212253433252       -0.00413563767413
O            0.42595530449869        2.66184910325066       -0.00276043550104
N           -1.29059995995596        1.14882502230171       -0.03049260636307
C           -2.27306243183117        2.22273056042222       -0.05096108424415
C           -1.83792590410118       -0.13585650609572       -0.04672462516383
O           -3.03737651591237       -0.29663716380377       -0.07135592541124
N           -0.95984037348991       -1.19147494083990       -0.03423792898771
C           -1.44894811293197       -2.55567229208798       -0.05769686105286
H            3.71810250062998        1.26108407179775        1.06658734755066
H            4.00231700098007        1.07049524912548       -0.67466576741927
H            2.73638345836895        2.18082402171329       -0.09005335609514
H            3.45890035409323       -1.57620992844966        0.04444519908889
H           -1.73843439724746        3.16949268223438       -0.02602316434325
H           -2.87977099234255        2.15323367368232       -0.95392989632983
H           -2.93403574990281        2.13587486118755        0.81136875349994
H           -1.09702634280133       -3.08699625033196        0.82561168041574
H           -1.07440504741998       -3.06565201967651       -0.94435103000635
H           -2.53547880523235       -2.51720485323930       -0.07158762916733
H            2.03021932442059       -4.84785761957351       -0.03316556927091
25
 energy: 19.937281011217 xtb: 6.6.1 (8d0f1dd)
C            3.23874290822400        1.23341039661159        0.08592578529709
N            2.26208435654091        0.17514060896068        0.03992935958851
C            2.47219253920830       -1.15548300990636        0.03083312531314
N            1.35633126384336       -1.86284263536628        0.00322379008439
C            0.37674873558499       -0.94179186731681       -0.00528111244626
C            0.89732888835665        0.34349046112854        0.01702656995029
C            0.05601475287174        1.50439518743974       -0.00320891476255
O            0.42587725691293        2.66430177681857       -0.00212200127461
N           -1.29098012960928        1.14849911007379       -0.03027168655771
C           -2.27395654331060        2.22279578186121       -0.05088706737334
C           -1.83632489711805       -0.13511631662477       -0.04678787196023
O           -3.03573884692877       -0.29770730414692       -0.07147361500763
N           -0.95719235363025       -1.19372475398432       -0.03497680576604
C           -1.44697297457848       -2.55452185500234       -0.05798938842428
H            3.71942075460860        1.26290905115722        1.06602957164801
H            4.00244856559849        1.07083953951992       -0.67513692848631
H            2.73929559825783        2.18533873763383       -0.09080580885908
H            3.46061557690071       -1.57377580481960        0.04519562348454
H           -1.73810233369654        3.16881729318437       -0.02563998816624
H           -2.87981381826950        2.15328335265363       -0.95408553574531
H           -2.93450818732624        2.13561672146957        0.81136613887460
H           -1.09740881730828       -3.08816085857381        0.82544804096179
H           -1.07454851915608       -3.06691645665670       -0.94475576509278
H           -2.53427113640986       -2.51571432087737       -0.07195152863590
H            2.00493166540594       -4.89405404649333       -0.03257007444952
25
 energy: 19.875974792683 xtb: 6.6.1 (8d0f1dd)
C            3.23979122241817        1.23773920940054        0.08680533505662
N            2.26071981044211        0.18545366294880        0.03957935645608
C            2.48407606070176       -1.14423136223059        0.03073815897356
N            1.37174749813218       -1.85826876058447        0.00232513079621
C            0.38135249699585       -0.94426771284152       -0.00568401882857
C            0.89728331988343        0.34326332538328        0.01732317659330
C            0.05534940190050        1.50399182090351       -0.00386180041554
O            0.42666018393962        2.66393683612933       -0.00292794062846
N           -1.29150600571046        1.14728074395236       -0.03063478079147
C           -2.27430379153235        2.22217740226444       -0.05101576876287
C           -1.83359795405336       -0.13426391329071       -0.04662171528241
O           -3.03257230214472       -0.30176994394975       -0.07084723864874
N           -0.95224307226057       -1.19724728692914       -0.03539078433760
C           -1.44536606532405       -2.55423513595844       -0.05771126618795
H            3.72044904512175        1.26497742542426        1.06698035776725
H            4.00282565968571        1.07270564946370       -0.67424761839631
H            2.74256024440819        2.19073449128303       -0.08975657590497
H            3.46615459331836       -1.56986444588836        0.04397575518403
H           -1.73758981591749        3.16776575041796       -0.02608291466096
H           -2.88008823882860        2.15280474566265       -0.95404929570271
H           -2.93419423781912        2.13539150010998        0.81154265956392
H           -1.09801213949797       -3.08993616006095        0.82594061458153
H           -1.07535648594689       -3.06904895479900       -0.94467625106621
H           -2.53339448645118       -2.51470756365415       -0.07156369709425
H            1.95146936351161       -4.92135253441273       -0.03310496606885
25
 energy: 19.816909408796 xtb: 6.6.1 (8d0f1dd)
C            3.24045045123447        1.23978999512117        0.08606383042664
N            2.26117961413847        0.18925483444719        0.03916207212007
C            2.49030207088128       -1.13896820650083        0.03189153216022
N            1.38460937594979       -1.85851759532525        0.00317118314566
C            0.38543914607514       -0.95062301794786       -0.00540571530790
C            0.89720744621027        0.33983346637751        0.01789095148563
C            0.05674454516466        1.50163953134732       -0.00288764338181
O            0.42705096318711        2.66174926794468       -0.00179546447167
N           -1.29175384202344        1.14626425081593       -0.03027401490749
C           -2.27399832326979        2.22134344351079       -0.05085474170325
C           -1.83187174345214       -0.13416160874345       -0.04675099058367
O           -3.03048174092190       -0.30521119558423       -0.07143430744396
N           -0.94914919830632       -1.19872592399240       -0.03532733997396
C           -1.44506068273969       -2.55512272501086       -0.05817792188344
H            3.72114633887952        1.26676622132903        1.06617551148436
H            4.00299339300851        1.07346702441790       -0.67527874814217
H            2.74377542445880        2.19306692439668       -0.09102911442269
H            3.47104517493443       -1.56706035905132        0.04493851050510
H           -1.73744206181535        3.16710662163518       -0.02542591857540
H           -2.87961372311056        2.15273123471014       -0.95417523481359
H           -2.93452270674587        2.13488963968846        0.81138415332172
H           -1.09821165603797       -3.09095673181274        0.82554275720964
H           -1.07511491194652       -3.06970974739027       -0.94532776110928
H           -2.53297947721049       -2.51479734801979       -0.07226931498367
H            1.91047042843009       -4.91501920761897       -0.03277235796049
25
 energy: 19.775610304284 xtb: 6.6.1 (8d0f1dd)
C            3.24050488719222        1.24027803065207        0.08717904319297
N            2.26240697214627        0.18851889382950        0.03892225519254
C            2.49070327270469       -1.13867199274925        0.03111364733799
N            1.38939268402528       -1.86026404849404        0.00282994459059
C            0.38706383319679       -0.95465347705769       -0.00572267227876
C            0.89709826083994        0.33743351531023        0.01690436252473
C            0.05825219222657        1.49997992902818       -0.00421451134821
O            0.42711658141386        2.66029068858472       -0.00308906291148
N           -1.29163659317522        1.14599838924319       -0.03073407179421
C           -2.27349790760086        2.22096334773329       -0.05104869023138
C           -1.83144182985410       -0.13460551650633       -0.04661597348498
O           -3.03003021762233       -0.30614177735327       -0.07082540246953
N           -0.94867660482958       -1.19833911653867       -0.03498239660329
C           -1.44557095721325       -2.55596244788791       -0.05758997255360
H            3.72067014359655        1.26651542469267        1.06757430702742
H            4.00334157094993        1.07471650623893       -0.67403896032651
H            2.74313981042609        2.19321149567364       -0.08942879966846
H            3.47313927760656       -1.56547558125020        0.04369765305797
H           -1.73733344116410        3.16702919698228       -0.02617674499225
H           -2.87990306123868        2.15239150305181       -0.95402326539665
H           -2.93387071616998        2.13502343970756        0.81154149619297
H           -1.09780241972238       -3.09066348185967        0.82616959787388
H           -1.07535009428318       -3.06975846979556       -0.94472178778997
H           -2.53311120661655       -2.51517998237745       -0.07133923587230
H            1.89760986813792       -4.90360568011400       -0.03434684707494
25
 energy: 19.764863897564 xtb: 6.6.1 (8d0f1dd)
C            3.24057853270932        1.24031012623487        0.08615101252268
N            2.26312586936844        0.18755033411133        0.03902359651817
C            2.48977496112816       -1.13926886811774        0.03201395593543
N            1.38979158146419       -1.86107532992586        0.00394166743887
C            0.38724177367330       -0.95557394663800       -0.00529306856586
C            0.89694304586519        0.33690617432582        0.01733254695608
C            0.05872990386205        1.49961664671326       -0.00312805593117
O            0.42694130437725        2.66004310944264       -0.00188486402013
N           -1.29161757412585        1.14614932032048       -0.03026000082110
C           -2.27341313844468        2.22093093950226       -0.05084916759313
C           -1.83148484442366       -0.13496779160574       -0.04672153987517
O           -3.03015066357736       -0.30592784859169       -0.07149007807499
N           -0.94896936679843       -1.19770915751515       -0.03486229368632
C           -1.44577719617981       -2.55624187145445       -0.05814616727953
H            3.72099974256168        1.26709359106045        1.06636208837768
H            4.00323240406530        1.07429378660367       -0.67525562933019
H            2.74272956772057        2.19278250492702       -0.09094861551518
H            3.47343839158926       -1.56477203141570        0.04495349880782
H           -1.73747867731496        3.16712560415328       -0.02549678513047
H           -2.87948734100930        2.15257938947036       -0.95412675875119
H           -2.93432568214237        2.13482676295461        0.81138620027489
H           -1.09789261428031       -3.09061645399743        0.82554199357821
H           -1.07481013907727       -3.06920856236072       -0.94529411029797
H           -2.53314095542378       -2.51540083280312       -0.07223562250468
H            1.89723541938556       -4.90041680665040       -0.03367989083816
25
 energy: 19.763255126849 xtb: 6.6.1 (8d0f1dd)
C            3.24053218332940        1.24038464122308        0.08710572849633
N            2.26350769631421        0.18708847825261        0.03896065977385
C            2.48918364242585       -1.13955053209383        0.03119321320572
N            1.38951605391653       -1.86127013548421        0.00328071448310
C            0.38719237461051       -0.95552898281009       -0.00571015753740
C            0.89682956826140        0.33697965092647        0.01654027117265
C            0.05887911951464        1.49965553164821       -0.00422659996308
O            0.42688894462720        2.66012453561772       -0.00301606807356
N           -1.29157173281727        1.14632042417043       -0.03068804428203
C           -2.27336334935767        2.22097262546129       -0.05103411572270
C           -1.83150565956435       -0.13530800979347       -0.04663464674566
O           -3.03028157591289       -0.30557165250767       -0.07091137895161
N           -0.94919968367777       -1.19732954013987       -0.03477938484747
C           -1.44586859525265       -2.55634611151722       -0.05756322823899
H            3.72059929046717        1.26648476599685        1.06752604681996
H            4.00348660579563        1.07488300340344       -0.67406794244267
H            2.74245447968496        2.19271314992988       -0.08951834130824
H            3.47347538011118       -1.56429323699475        0.04401655758942
H           -1.73743793265093        3.16717678913593       -0.02613914812608
H           -2.87986914576327        2.15241784419970       -0.95402460949754
H           -2.93389507778554        2.13503063690847        0.81151713186854
H           -1.09752239840600       -3.09024835236593        0.82617319847716
H           -1.07509609722669       -3.06929402832856       -0.94465939346067
H           -2.53319173394730       -2.51543313378844       -0.07129430281722
H            1.89847194827612       -4.90102957230608       -0.03501224767725
