25
 energy: 0.000000000000 xtb: 6.6.1 (8d0f1dd)
C            3.23720163006194        1.16630919979326        0.08434469647475
N            2.29877817382611        0.07527477071623        0.03981603040599
C            2.58028210190900       -1.21425402444508        0.03006176031096
N            1.43813958087363       -1.93419271955128        0.00098261760884
C            0.39035688448383       -1.05887472636071       -0.00790371836672
C            0.93510056364412        0.21347819449412        0.01709077491437
C            0.09450143893243        1.40504303904423       -0.00410947031874
O            0.49712751527797        2.54126714362870       -0.00342325688240
N           -1.25076640035757        1.06271879480407       -0.03085478223738
C           -2.21907211982101        2.15522099834493       -0.05001256985998
C           -1.81739487048744       -0.20012725993278       -0.04692818574614
O           -2.99983886758376       -0.37846417018721       -0.07008878229737
N           -0.92618586207120       -1.30210215599479       -0.03682761578324
C           -1.46982264913417       -2.64643102187190       -0.06029820460571
H            3.71247264356769        1.21471455160235        1.06488849150277
H            4.00791497605742        1.03430808813993       -0.67357694370751
H            2.69910007168542        2.09770118228144       -0.09130154882931
H            3.56654120610678       -1.63682992603973        0.04233140067262
H           -1.67107961066214        3.09322851271934       -0.02552706933167
H           -2.82428953597071        2.09428624779827       -0.95318082946668
H           -2.87644029173232        2.07745725625962        0.81450067533302
H           -1.17061996399332       -3.19584890659852        0.83242232437030
H           -1.14560257411436       -3.17511610292205       -0.95688275822323
H           -2.55549792440841       -2.55659984320617       -0.07459039797972
H            1.38130855184625       -2.94313852034425       -0.01389874181052
25
 energy: -0.100817766930 xtb: 6.6.1 (8d0f1dd)
C            3.23271791282947        1.18021770192630        0.08600561544071
N            2.29476195477716        0.08958533073075        0.03776207191119
C            2.58836816294604       -1.24366400802891        0.03038545513227
N            1.44166860723061       -2.00769022926430        0.00010934058756
C            0.40401702443662       -1.08547002923091       -0.00835936286811
C            0.92121865229075        0.21203512949520        0.01516223153966
C            0.09556354205668        1.40252717585735       -0.00457611139382
O            0.49165978005769        2.56986097019321       -0.00327723988074
N           -1.26730679739754        1.06828173820116       -0.03083351671631
C           -2.23334454486525        2.16578252622638       -0.05009866086506
C           -1.82196358613417       -0.18621943439942       -0.04708616809267
O           -3.01887269657913       -0.36654798951349       -0.07052970462194
N           -0.93248068523786       -1.29415730611581       -0.03676186057954
C           -1.46960609902194       -2.62875899119960       -0.05976525628741
H            3.71555457708587        1.23072498750117        1.06615246913176
H            4.00418372902466        1.04691866412076       -0.67429207146938
H            2.70354898363151        2.11687155886283       -0.08955711205081
H            3.57133495956032       -1.64368408095499        0.04355959129715
H           -1.68468649243737        3.10539010078835       -0.02548786252656
H           -2.84195659097287        2.11233042548534       -0.95292036957928
H           -2.89495833080398        2.09543845510640        0.81326520253531
H           -1.15200733286054       -3.16983262246858        0.83265297227629
H           -1.12760574398920       -3.14900645548654       -0.95561076289848
H           -2.55444010760785       -2.54182144861956       -0.07375596987931
H            1.44684578991654       -3.09008356704108       -0.01510902399517
25
 energy: 11.868080408760 xtb: 6.6.1 (8d0f1dd)
C            3.22737423245885        1.18590801620608        0.08701547155616
N            2.28746087481999        0.09637989647108        0.03445214762292
C            2.58782078207418       -1.26601511025887        0.03141831460552
N            1.44229516950378       -2.07786119667999       -0.00038403231641
C            0.41529559958110       -1.11431566926938       -0.00903261043497
C            0.90504500945010        0.20134657119887        0.01284657412375
C            0.09528613405416        1.38936976912280       -0.00484972488241
O            0.48024764072008        2.57012827834153       -0.00269975298268
N           -1.28790480911438        1.08095582550441       -0.03073086274109
C           -2.24925430496496        2.18377613962283       -0.05023657353570
C           -1.82412844699180       -0.16598779663076       -0.04709418276479
O           -3.02579913308976       -0.35448974694110       -0.07100831483941
N           -0.93962517014652       -1.27600739592611       -0.03648950724705
C           -1.46898692530810       -2.60547067414685       -0.05912118315421
H            3.71585280391868        1.24337758698512        1.06638947291600
H            4.00024621581599        1.05883122306248       -0.67523356296484
H            2.70551472417108        2.12855977888126       -0.08733153713472
H            3.57493916168732       -1.63726301466631        0.04527418962762
H           -1.70054669118678        3.12448622561645       -0.02524623546985
H           -2.86102357386563        2.13468933396280       -0.95244883976652
H           -2.91514871406478        2.11754796396600        0.81143598039975
H           -1.13303473172516       -3.14001488834005        0.83173850790402
H           -1.10959430143019       -3.11917011353573       -0.95313457163430
H           -2.55336373131033       -2.53098564774518       -0.07273977501441
H            1.54324685287929       -3.23874675262937       -0.01575549572511
25
 energy: 21.410925403767 xtb: 6.6.1 (8d0f1dd)
C            3.22542376172262        1.18604468019255        0.08716921296754
N            2.28574593564557        0.09642911344029        0.03231059043383
C            2.58401907527684       -1.27491499617016        0.03235829806945
N            1.43990887370422       -2.10472779743714       -0.00034060108508
C            0.41869393485263       -1.12496000478619       -0.00942693329317
C            0.89965398974644        0.19467557064938        0.01189382433059
C            0.09519680372632        1.38422925446577       -0.00468637084484
O            0.47502838536520        2.56494924648317       -0.00221321754767
N           -1.29821483289305        1.09242795283070       -0.03063521772147
C           -2.25791445701500        2.19533058588116       -0.05041876600410
C           -1.82623733851970       -0.15513596790173       -0.04708504194590
O           -3.02704602862661       -0.35280746870867       -0.07140260695334
N           -0.94213266760633       -1.26208245060289       -0.03612440488697
C           -1.46735514673397       -2.59361074794235       -0.05866712705664
H            3.71384982416588        1.24690894303753        1.06656019306823
H            3.99824470412938        1.06396827509448       -0.67593403038482
H            2.70469840889627        2.13093906971699       -0.08629766326093
H            3.57723089704974       -1.63173899317212        0.04571669098463
H           -1.71091312778683        3.13671613833579       -0.02503858709298
H           -2.87041509437086        2.14582014648194       -0.95247227669407
H           -2.92533561674553        2.12838687765334        0.81038724896573
H           -1.12297173918414       -3.12447362854515        0.83133059850743
H           -1.10020367098028       -3.10364538760391       -0.95179307135173
H           -2.55193092999504       -2.53016802748477       -0.07205138610765
H            1.59519072411243       -3.31953178173603       -0.01610545894874
25
 energy: 27.747879849703 xtb: 6.6.1 (8d0f1dd)
C            3.22606512882323        1.18611606090799        0.08723881477976
N            2.28683275237969        0.09653176513593        0.03113789103493
C            2.57963331119346       -1.27660204132656        0.03346924379306
N            1.43534278684691       -2.10826391497395        0.00008169169429
C            0.41779923798314       -1.12457419892127       -0.00957439635266
C            0.89929201599129        0.19386162394249        0.01172049974225
C            0.09525998011258        1.38514742840698       -0.00459817429561
O            0.47221142812721        2.56368660404129       -0.00202602736844
N           -1.30177232702254        1.09897403137307       -0.03060739761576
C           -2.26115015224690        2.19971998752757       -0.05053241231346
C           -1.82852580545390       -0.15084559532716       -0.04708637979664
O           -3.02767923889884       -0.35387097011655       -0.07158340899203
N           -0.94332130218579       -1.25348084412255       -0.03578092654036
C           -1.46599232055822       -2.58900032888477       -0.05844764173936
H            3.71332674629391        1.24784402953698        1.06681170725648
H            3.99850698770816        1.06581127517062       -0.67598199140959
H            2.70509063382060        2.13162275025589       -0.08620130763749
H            3.57584869556840       -1.62787524837837        0.04507853064410
H           -1.71553298865452        3.14144729367413       -0.02498501882453
H           -2.87334350247916        2.14862061370240       -0.95279023558349
H           -2.92853860119334        2.13102538009412        0.81025656140114
H           -1.11883438535535       -3.11799792202098        0.83119477048102
H           -1.09628303646797       -3.09710380035485       -0.95128301032485
H           -2.55057190009068       -2.53162471856496       -0.07180923118525
H            1.61855052369485       -3.37014065860547       -0.01666825470023
25
 energy: 35.825707330890 xtb: 6.6.1 (8d0f1dd)
C            3.22787096618857        1.18776788396174        0.08718354324970
N            2.28965113462833        0.09809706122795        0.02976066951145
C            2.57275960518070       -1.27467132185637        0.03669372223406
N            1.42717361835844       -2.09889913735441        0.00195334883749
C            0.41388546317443       -1.11767963179708       -0.00996321144380
C            0.90079310064256        0.19721112099506        0.01193351298475
C            0.09515102526775        1.39005279730122       -0.00445538983723
O            0.46856648588777        2.56573285348237       -0.00210277506690
N           -1.30358613838341        1.10499357849316       -0.03053449517118
C           -2.26303683156947        2.20233387765943       -0.05057777243550
C           -1.83225733678541       -0.14783246076767       -0.04709017142377
O           -3.02910483775880       -0.35433239309278       -0.07162463956033
N           -0.94526263131643       -1.24387941316236       -0.03553293719743
C           -1.46453084837344       -2.58539748266748       -0.05839846290601
H            3.71341421970494        1.24954029885037        1.06706883309397
H            3.99996811056197        1.06793497877302       -0.67571444765444
H            2.70645059672447        2.13347201971061       -0.08677758167270
H            3.57144043819058       -1.62247476365351        0.04313217145925
H           -1.71959295082099        3.14486153823714       -0.02495569873139
H           -2.87501995046186        2.14976437438928       -0.95299377238986
H           -2.93027001089038        2.13203356919439        0.81032619771487
H           -1.11526485702706       -3.11193909327265        0.83106413762795
H           -1.09279607795954       -3.09098233748879       -0.95109120031551
H           -2.54893048076470       -2.53284535798193       -0.07179027203150
H            1.64474285553719       -3.45383395700872       -0.01847941272864
25
 energy: 32.940862394973 xtb: 6.6.1 (8d0f1dd)
C            3.23136914788779        1.19311999867013        0.08679580264395
N            2.29073683274751        0.10775479413610        0.02662367191835
C            2.54406752285507       -1.26420059705017        0.04503354665122
N            1.40238225039509       -2.07456243826056        0.00943264027509
C            0.40399787977107       -1.09665820320488       -0.01117941139503
C            0.89893701028080        0.21222003165548        0.01261620751216
C            0.09471013113990        1.40534383072829       -0.00358991880128
O            0.45523033963009        2.57381893981037       -0.00277487545161
N           -1.31060318435264        1.12498397388128       -0.03021626987745
C           -2.26885816981784        2.21272427996882       -0.05072673045965
C           -1.83980731543612       -0.13655079117003       -0.04710298779458
O           -3.03120071446021       -0.35253596097268       -0.07168117726007
N           -0.95161902424618       -1.21339686152954       -0.03528190836696
C           -1.46148177966656       -2.57219798808857       -0.05820585206598
H            3.71305318985682        1.25267897918735        1.06714312094316
H            4.00138202507476        1.07174144774695       -0.67599535795903
H            2.71175321062833        2.14146615819011       -0.08767914857301
H            3.55156352898228       -1.60205984252268        0.03936045413604
H           -1.72848292193103        3.15571453830727       -0.02489634326223
H           -2.87975295405628        2.15540157134674       -0.95381246356314
H           -2.93525552466706        2.13744629232106        0.81068226870891
H           -1.10589666037041       -3.09505106411220        0.82894331093522
H           -1.08379886003697       -3.07439571156902       -0.94850962206845
H           -2.54559972667525       -2.53418646150646       -0.07161648352898
H            1.75538843440324       -3.73959031379112       -0.02632857714936
25
 energy: 25.016760491843 xtb: 6.6.1 (8d0f1dd)
C            3.23314283393485        1.19660998756671        0.08700290128075
N            2.28507418447278        0.11525954561342        0.02683098869859
C            2.49797776201524       -1.24397598623042        0.04575967551106
N            1.37578525640159       -2.02362951267989        0.01375608788080
C            0.39369363785852       -1.06103922131013       -0.01058439608796
C            0.89835417993204        0.23765456596651        0.01325655237483
C            0.09113683043034        1.43028735535204       -0.00407763671942
O            0.44062972269946        2.58481031266698       -0.00289033113235
N           -1.31020835258261        1.14532427404493       -0.03026358627265
C           -2.27179819448182        2.22178075616410       -0.05095244763667
C           -1.84297108312061       -0.13047554903441       -0.04697269781106
O           -3.02973229018213       -0.34707694596753       -0.07175998801815
N           -0.95378622694882       -1.18563364221563       -0.03385856851785
C           -1.45751730932124       -2.56134755454648       -0.05769648718838
H            3.71185595063854        1.25307618692343        1.06661369255481
H            4.00071126432320        1.07218728775823       -0.67557518561654
H            2.71810619915364        2.14889268864210       -0.08807599348736
H            3.51609547676205       -1.58340207236096        0.03782843052146
H           -1.73650206043312        3.16637580183602       -0.02514368376758
H           -2.88219590750441        2.15920197469831       -0.95409092203719
H           -2.93776348024153        2.14120177728611        0.81044616039713
H           -1.09666296190020       -3.08186797827355        0.82603338134822
H           -1.07476763798692       -3.06116275983395       -0.94467456008380
H           -2.54183976971980       -2.53399999468399       -0.07133033106585
H            1.88539664373716       -4.07002269520993       -0.03254715897753
25
 energy: 20.701997365429 xtb: 6.6.1 (8d0f1dd)
C            3.23201217389769        1.20122387912701        0.08737556955665
N            2.27160760205861        0.12403054846652        0.03311640330914
C            2.46190438156323       -1.21141075576192        0.03405089836015
N            1.36268236344302       -1.94261135572400        0.00859141509532
C            0.38722854456934       -1.01093429175871       -0.00656776188434
C            0.89870828951497        0.27920447866187        0.01285791216651
C            0.08058813925994        1.46287250263514       -0.00642048247079
O            0.43413059575878        2.61484443944676       -0.00197143535323
N           -1.29763694084627        1.14707045658522       -0.03082552262793
C           -2.26890848177403        2.22086840561450       -0.05096977026290
C           -1.83922174050827       -0.13720284164050       -0.04669986576363
O           -3.03056720263662       -0.32880411129804       -0.07178614196606
N           -0.95212961315001       -1.18635821827136       -0.03144327498233
C           -1.45475205215807       -2.56213532984648       -0.05710171515374
H            3.71163082901622        1.25012971559123        1.06602277683382
H            3.99883676296420        1.06660262534390       -0.67482490768925
H            2.72333197148210        2.15451703686374       -0.08837896804182
H            3.47743012717136       -1.58124603763433        0.04363567630945
H           -1.73743187228884        3.16861552569941       -0.02556067978521
H           -2.87953156236877        2.15686927195328       -0.95344736629176
H           -2.93450851166688        2.13905561244383        0.81014053973365
H           -1.09611719342258       -3.08450681528771        0.82593055383451
H           -1.07374090381639       -3.06261436438580       -0.94388579652857
H           -2.53948536603041       -2.52757185421902       -0.07121198038211
H            1.97615432790388       -4.36147992043251       -0.03359217986824
25
 energy: 20.074617152072 xtb: 6.6.1 (8d0f1dd)
C            3.23520979496489        1.21633658415662        0.08557770015992
N            2.26613452571212        0.14547992568424        0.03748359185724
C            2.45617392910339       -1.18335386957470        0.03106639489473
N            1.35275670209130       -1.89116808989125        0.00599569500798
C            0.37895016542572       -0.96823353998354       -0.00508171153922
C            0.89810061692471        0.31826058321095        0.01479722300566
C            0.06705281717226        1.48901425096454       -0.00390509414513
O            0.42829156682036        2.64632027163544       -0.00130561145666
N           -1.29164154526897        1.14769117154660       -0.03023372524546
C           -2.27044946679655        2.22123956786518       -0.05089227280843
C           -1.83902011459004       -0.13791071701468       -0.04692166370159
O           -3.03619109751395       -0.30644838295684       -0.07228029782642
N           -0.95816016732784       -1.18917539638382       -0.03273060918638
C           -1.45276732956655       -2.55938322555318       -0.05780520514146
H            3.71459812776604        1.25515434620881        1.06542496378011
H            4.00145150146729        1.06751842227328       -0.67559239379767
H            2.73060650032713        2.16815897005520       -0.09080352509414
H            3.46177184273531       -1.57952906084659        0.04621640764409
H           -1.73817029842507        3.16929832957852       -0.02528819697301
H           -2.87877428970249        2.15406289824151       -0.95388989183015
H           -2.93359862144010        2.13598596840291        0.81087003483667
H           -1.09681188421912       -3.08596369019642        0.82533813628194
H           -1.07424028426292       -3.06385701235819       -0.94466201453545
H           -2.53825143448426       -2.52156605370845       -0.07180468908006
H            2.02919311102358       -4.65890364918411       -0.03253934895984
25
 energy: 19.982067342736 xtb: 6.6.1 (8d0f1dd)
C            3.23778989100665        1.22944964289357        0.08638907433214
N            2.26365821742949        0.16616319258418        0.03987452420076
C            2.46464166711743       -1.16439930500569        0.03025359614859
N            1.35010566716715       -1.86927608671028        0.00366512290346
C            0.37520556621983       -0.94546624856571       -0.00510639589983
C            0.89749302779502        0.33958717941207        0.01608654286426
C            0.05834794623416        1.50212267369504       -0.00413563805782
O            0.42595534401757        2.66184935020920       -0.00276043575715
N           -1.29060007969403        1.14882512888632       -0.03049260919208
C           -2.27306264271923        2.22273076664063       -0.05096108897217
C           -1.83792607461855       -0.13585651870009       -0.04672462949880
O           -3.03737679771124       -0.29663719132489       -0.07135593203143
N           -0.95984046254108       -1.19147505138145       -0.03423793216420
C           -1.44894824736112       -2.55567252919575       -0.05769686640581
H            3.71810284558461        1.26108418879743        1.06658744650550
H            4.00231737230329        1.07049534844289       -0.67466583001278
H            2.73638371224257        2.18082422404374       -0.09005336445003
H            3.45890067499985       -1.57621007468579        0.04444520321239
H           -1.73843455853430        3.16949297629060       -0.02602316675760
H           -2.87977125951925        2.15323387345302       -0.95392998483264
H           -2.93403602211403        2.13587505934775        0.81136882877635
H           -1.09702644458021       -3.08699653673441        0.82561175701357
H           -1.07440514710013       -3.06565230409870       -0.94435111762047
H           -2.53547904046663       -2.51720508677817       -0.07158763580902
H            2.03021951277838       -4.84785806934350       -0.03316557234791
25
 energy: 19.937304701807 xtb: 6.6.1 (8d0f1dd)
C            3.23874320870506        1.23341051104378        0.08592579326903
N            2.26208456641045        0.17514062520971        0.03992936329304
C            2.47219276857106       -1.15548311710868        0.03083312817375
N            1.35633138967979       -1.86284280819535        0.00322379038348
C            0.37674877053863       -0.94179195469349       -0.00528111293623
C            0.89732897160819        0.34349049299658        0.01702657152997
C            0.05601475806862        1.50439532701311       -0.00320891506026
O            0.42587729642457        2.66430202400466       -0.00212200147148
N           -1.29098024938263        1.14849921662816       -0.03027168936623
C           -2.27395675428161        2.22279598808567       -0.05088707209449
C           -1.83632506748688       -0.13511632916047       -0.04678787630107
O           -3.03573912857570       -0.29770733176733       -0.07147362163874
N           -0.95719244243575       -1.19372486473460       -0.03497680901109
C           -1.44697310882438       -2.55452209200338       -0.05798939380437
H            3.71942109968553        1.26290916832621        1.06602967055110
H            4.00244893693391        1.07083963886927       -0.67513699112353
H            2.73929585240163        2.18533894038314       -0.09080581728378
H            3.46061589796646       -1.57377595082990        0.04519562767766
H           -1.73810249495257        3.16881758717793       -0.02563999054504
H           -2.87981408545017        2.15328355242894       -0.95408562426256
H           -2.93450845958129        2.13561691960582        0.81136621415077
H           -1.09740891912265       -3.08816114508431        0.82544811754444
H           -1.07454861884954       -3.06691674119620       -0.94475585274445
H           -2.53427137153209       -2.51571455427796       -0.07195153531135
H            2.00493185141761       -4.89405450054929       -0.03257007747128
25
 energy: 19.875998758898 xtb: 6.6.1 (8d0f1dd)
C            3.23979152299648        1.23773932423435        0.08680534311016
N            2.26072002018505        0.18545368015465        0.03957936012814
C            2.48407629116704       -1.14423146838902        0.03073816182536
N            1.37174762539888       -1.85826893298919        0.00232513101193
C            0.38135253237661       -0.94426780044791       -0.00568401935592
C            0.89728340313074        0.34326335723024        0.01732317820049
C            0.05534940703565        1.50399196043945       -0.00386180077383
O            0.42666022352390        2.66393708328157       -0.00292794090011
N           -1.29150612553259        1.14728085039370       -0.03063478363367
C           -2.27430400253558        2.22217760843153       -0.05101577349596
C           -1.83359812416919       -0.13426392574732       -0.04662171960784
O           -3.03257258349787       -0.30176997194708       -0.07084724522174
N           -0.95224316060689       -1.19724739800623       -0.03539078762105
C           -1.44536619942087       -2.55423537293287       -0.05771127154223
H            3.72044939029409        1.26497754278515        1.06698045675855
H            4.00282603105612        1.07270574898618       -0.67424768095102
H            2.74256049885488        2.19073469453294       -0.08975658423232
H            3.46615491489800       -1.56986459153577        0.04397575926397
H           -1.73758997712597        3.16776604431396       -0.02608291708086
H           -2.88008850603473        2.15280494539355       -0.95404938421660
H           -2.93419451004504        2.13539169822533        0.81154273485646
H           -1.09801224136831       -3.08993644673615        0.82594069120987
H           -1.07535658571531       -3.06904923953635       -0.94467633871050
H           -2.53339472149208       -2.51470779696133       -0.07156370373372
H            1.95146954456321       -4.92135299100137       -0.03310496914023
25
 energy: 19.816933561057 xtb: 6.6.1 (8d0f1dd)
C            3.24045075187395        1.23979011014524        0.08606383841139
N            2.26117982392407        0.18925485200570        0.03916207575341
C            2.49030230192419       -1.13896831217096        0.03189153511902
N            1.38460950440978       -1.85851776775305        0.00317118343987
C            0.38543918183505       -0.95062310614387       -0.00540571580943
C            0.89720752945054        0.33983349790626        0.01789095314550
C            0.05674455042925        1.50163967066503       -0.00288764364972
O            0.42705100280764        2.66174951489396       -0.00179546463825
N           -1.29175396186857        1.14626435716296       -0.03027401771622
C           -2.27399853424468        2.22134364960051       -0.05085474642140
C           -1.83187191340782       -0.13416162119057       -0.04675099492109
O           -3.03048202208110       -0.30521122390083       -0.07143431407143
N           -0.94914928636560       -1.19872603520667       -0.03532734325153
C           -1.44506081680818       -2.55512296206764       -0.05817792728102
H            3.72114668411655        1.26676633885588        1.06617561040099
H            4.00299376439448        1.07346712401102       -0.67527881079255
H            2.74377567901823        2.19306712786299       -0.09102912286810
H            3.47104549696781       -1.56706050443858        0.04493851467436
H           -1.73744222301012        3.16710691547003       -0.02542592093434
H           -2.87961399027266        2.15273143443422       -0.95417532333917
H           -2.93452297900227        2.13488983775725        0.81138422859956
H           -1.09821175792682       -3.09095701858263        0.82554283380107
H           -1.07511501169252       -3.06971003218893       -0.94532784881401
H           -2.53297971221289       -2.51479758133530       -0.07226932168860
H            1.91047060567793       -4.91501966362002       -0.03277236100101
25
 energy: 19.775634474255 xtb: 6.6.1 (8d0f1dd)
C            3.24050518783675        1.24027814572142        0.08717905128119
N            2.26240718204574        0.18851891131973        0.03892225880363
C            2.49070350378482       -1.13867209839189        0.03111365022462
N            1.38939281292905       -1.86026422108388        0.00282994485314
C            0.38706386910744       -0.95465356562764       -0.00572267280969
C            0.89709834407008        0.33743354661632        0.01690436409307
C            0.05825219763104        1.49998006819191       -0.00421451173922
O            0.42711662104048        2.66029093539868       -0.00308906319807
N           -1.29163671300947        1.14599849556555       -0.03073407464563
C           -2.27349811852932        2.22096355378775       -0.05104869496753
C           -1.83144199976989       -0.13460552899463       -0.04661597780987
O           -3.03003049873963       -0.30614180575621       -0.07082540904050
N           -0.94867669284501       -1.19833922771705       -0.03498239984885
C           -1.44557109132908       -2.55596268502260       -0.05758997789663
H            3.72067048878940        1.26651554219625        1.06757440607383
H            4.00334194236820        1.07471660594797       -0.67403902286187
H            2.74314006492655        2.19321169915336       -0.08942880796540
H            3.47313959983422       -1.56547572649043        0.04369765711211
H           -1.73733360234879        3.16702949080995       -0.02617674742085
H           -2.87990332842763        2.15239170274437       -0.95402335390813
H           -2.93387098836589        2.13502363778876        0.81154157148541
H           -1.09780252157326       -3.09066376860235        0.82616967452347
H           -1.07535019405100       -3.06975875459874       -0.94472187543848
H           -2.53311144163117       -2.51518021572846       -0.07133924249094
H            1.89761004419259       -4.90360613505613       -0.03434685026154
25
 energy: 19.764888056869 xtb: 6.6.1 (8d0f1dd)
C            3.24057883336068        1.24031024130720        0.08615102051552
N            2.26312607933461        0.18755035151170        0.03902360013866
C            2.48977519212217       -1.13926897381576        0.03201395890559
N            1.38979171040497       -1.86107550259096        0.00394166780457
C            0.38724180960045       -0.95557403529334       -0.00529306905694
C            0.89694312908093        0.33690620558299        0.01733254856414
C            0.05872990931084        1.49961678584329       -0.00312805622138
O            0.42694134398761        2.66004335623363       -0.00188486419500
N           -1.29161769395834        1.14614942665685       -0.03026000362853
C           -2.27341334936527        2.22093114555371       -0.05084917231077
C           -1.83148501434345       -0.13496780412766       -0.04672154420986
O           -3.03015094470584       -0.30592787697478       -0.07149008470763
N           -0.94896945484102       -1.19770926863509       -0.03486229692074
C           -1.44577733031477       -2.55624210861506       -0.05814617267416
H            3.72100008778511        1.26709370861767        1.06636218731162
H            4.00323277547345        1.07429388627349       -0.67525569197842
H            2.74272982218296        2.19278270836694       -0.09094862395313
H            3.47343871384467       -1.56477217659065        0.04495350297847
H           -1.73747883851313        3.16712589798989       -0.02549678749599
H           -2.87948760815968        2.15257958918035       -0.95412684727227
H           -2.93432595438049        2.13482696101757        0.81138627555292
H           -1.09789271613956       -3.09061674073575        0.82554207016957
H           -1.07481023879500       -3.06920884711288       -0.94529419799958
H           -2.53314119044116       -2.51540106617462       -0.07223562920649
H            1.89723559540549       -4.90041726129668       -0.03367989396288
25
 energy: 19.763279262974 xtb: 6.6.1 (8d0f1dd)
C            3.24053248397646        1.24038475630232        0.08710573657774
N            2.26350790631581        0.18708849561013        0.03896066338851
C            2.48918387336500       -1.13955063781798        0.03119321609973
N            1.38951618283175       -1.86127030816739        0.00328071478748
C            0.38719241053308       -0.95552907146126       -0.00571015806717
C            0.89682965146661        0.33697968219045        0.01654027270721
C            0.05887912497727        1.49965567078185       -0.00422660035521
O            0.42688898423270        2.66012478241626       -0.00301606835338
N           -1.29157185264550        1.14632053052267       -0.03068804712918
C           -2.27336356027364        2.22097283151661       -0.05103412045750
C           -1.83150582948607       -0.13530802234695       -0.04663465107229
O           -3.03028185705352       -0.30557168085771       -0.07091138553056
N           -0.94919977174173       -1.19732965122459       -0.03477938807420
C           -1.44586872939609       -2.55634634868750       -0.05756323357954
H            3.72059963565345        1.26648488349759        1.06752614586189
H            4.00348697722736        1.07488310312793       -0.67406800498071
H            2.74245473412183        2.19271335336337       -0.08951834961349
H            3.47347570237002       -1.56429338212528        0.04401656167315
H           -1.73743809384532        3.16717708297729       -0.02613915055119
H           -2.87986941294907        2.15241804389471       -0.95402469800914
H           -2.93389534998371        2.13503083499034        0.81151720715872
H           -1.09752250023091       -3.09024863907010        0.82617327512708
H           -1.07509619697095       -3.06929431308865       -0.94465948110339
H           -2.53319196896939       -2.51543336716294       -0.07129430943170
H            1.89847212441077       -4.90103002700921       -0.03501225092558
