  25
        -42.19612695
 C          3.3126355565        0.5778073521       -0.3392456419
 N          2.3005533644       -0.2552929630       -0.1736192843
 C          2.2978253026       -1.4589466248        0.4412989946
 N          1.0390107388       -1.9830870071        0.4580097421
 C          0.1799673738       -1.1509030737       -0.1746279550
 C          0.9497214410        0.0265141620       -0.6367977646
 C          0.3097883011        1.2959544846        0.0071347055
 O          0.9694080152        2.2161197674        0.4139720343
 N         -1.0583083569        1.2372509928        0.0140867055
 C         -1.7872047843        2.4708837788        0.2883443665
 C         -1.8476992408        0.0993342776       -0.1614356026
 O         -3.0446450540        0.1496442850       -0.2765813671
 N         -1.1677134289       -1.1273337362       -0.1056524680
 C         -1.9442543303       -2.3356024054        0.1023590331
 H          3.1502453375        1.5204785795       -0.8220722358
 H          4.2748329014        0.3226095223        0.0623666368
 H          0.9195402145        0.2163016280       -1.7191714882
 H          3.1605540758       -1.9369531067        0.8533313095
 H         -1.1381064752        3.3159751361        0.0722457339
 H         -2.6771959240        2.4961124452       -0.3393732869
 H         -2.0934445798        2.5092869318        1.3344109335
 H         -1.9006151374       -2.6521447279        1.1464579870
 H         -1.5786439197       -3.1306700163       -0.5451751519
 H         -2.9800231223       -2.1078856287       -0.1485235899
 H          0.8036818801       -2.8682030043        0.8810536316
