25
 energy: -42.079456246689 gnorm: 0.007176926947 xtb: 6.6.1 (8d0f1dd)
C            3.07838374550019        0.99499381173332        0.74838403281447
N            2.44759227531996        0.22152213918922       -0.29502693807337
C            3.06222990623304       -0.16566064820118       -1.32030620538386
N            1.23969321263242       -2.28100404319554        0.21563251274407
C            0.47407338958973       -1.26662588439401        0.05786614261131
C            1.03177178869258        0.02629498015423       -0.17305793129349
C            0.22128510646801        1.21279712862458       -0.28060490480557
O            0.68247675088322        2.32981404331800       -0.43165968455327
N           -1.14727984913300        0.99895216216752       -0.19854240882556
C           -2.03612649571154        2.13279114856442       -0.33523900554379
C           -1.75122094209970       -0.23354046607463       -0.01270446418751
O           -2.95019490715476       -0.33781683424956        0.02728118659366
N           -0.91374423485127       -1.32795634980623        0.13549901932334
C           -1.54799168126780       -2.61028701649958        0.37908996693535
H            2.82533096881184        0.57498059328057        1.72168435052621
H            4.15805498362373        0.99037521495469        0.60353695813769
H            2.70962620866199        2.02376370779060        0.69803589154666
H            2.68243648887358       -0.72740214697250       -2.15407088317204
H           -1.43606174686332        3.04028954708290       -0.37304881980761
H           -2.62770180302274        2.03695401758032       -1.24836084850075
H           -2.72949919368644        2.16157941770828        0.50698655347161
H           -1.27141095442676       -2.99490388591171        1.36342225542182
H           -1.26406998251329       -3.33035831576026       -0.39178121988074
H           -2.62719938701281       -2.46275230354260        0.34813848825230
H            0.84997786655020       -3.18856147593741        0.44001757355106
