  25
        -42.15974920
 C          3.2238683858        1.1547597393        0.0535253098
 N          2.2766722315        0.0734395586        0.0058204501
 C          2.5487360422       -1.2275434936       -0.0295641408
 N          1.3999483209       -1.9436060056       -0.0483117772
 C          0.3525622857       -1.0646189590       -0.0179256778
 C          0.8992089963        0.2259054014        0.0129579684
 C          0.1202068557        1.4047759299        0.0023467972
 O          0.4891721983        2.5577550549        0.0049759324
 N         -1.3209633371        1.1034033322       -0.0365376914
 C         -2.1229600085        2.1672156270       -0.0936057641
 C         -1.7840440085       -0.1732086655        0.0349804504
 O         -3.1096503700       -0.4296991316        0.0908106514
 N         -0.9692475094       -1.2815805204        0.0065599488
 C         -1.5170725142       -2.6238239751       -0.0214037404
 H          3.7600886348        1.1482850969        1.0044127394
 H          3.9454648289        1.0653433148       -0.7582835240
 H          2.6804048046        2.0942730781       -0.0411547963
 H          3.5302540925       -1.6564350711       -0.0464941780
 H         -1.6545323824        3.1294536536       -0.0860112685
 H         -3.1819233472        2.0677844408       -0.2272376931
 H         -3.6041757736        0.2942552265        0.4974398322
 H         -1.1302152371       -3.2016909971        0.8188611201
 H         -1.2573784265       -3.1151955909       -0.9599589594
 H         -2.5990739944       -2.5636412209        0.0551481801
 H          1.3390895684       -2.9503078592       -0.0707779292
