72
 energy: -99.697746640547 xtb: 6.6.1 (8d0f1dd)
N           -1.58908438742045        2.93418947746014        2.26933683946811
C           -1.59251346430525        2.17558155079521        1.26477309147066
C           -2.74942424095934        2.05901904913376        0.30887225099498
C           -3.30535340161201        0.64450602570807        0.36110727113732
C           -4.25612575857824        0.23464905904005       -0.57656799198077
C           -4.80837017475790       -1.03135847593997       -0.53900683249189
O           -5.74798763698715       -1.50535505400541       -1.40644158540287
C           -6.28973428376404       -0.62928964285938       -2.36072434863105
C           -4.40020014415390       -1.94299335502642        0.46025191726382
O           -4.99809649800379       -3.16779492715275        0.41594290771534
C           -4.70825590822673       -4.09254843816495        1.43176093868845
C           -3.45918499319071       -1.53689759381526        1.38676277527164
C           -2.92286459423878       -0.25505285592814        1.33827042989408
C           -2.18129081184637        2.35434168152580       -1.10644188455913
C           -1.32491894167334        1.22843878656076       -1.72471898911198
C           -0.00273974795794        1.09479904601689       -1.07640430875451
N            0.57595560363293       -0.10290040447241       -0.70888892162727
C            1.93277663708012       -0.12258311048892       -0.24967435579303
C            2.95193161108846       -0.57329648581676       -1.32927437314322
C            4.36092044751716       -0.42266821053870       -0.82534561396275
C            5.07557209958874        0.74642486064247       -1.02100185506171
C            6.38589031055523        0.88129362083790       -0.56592524136275
C            7.06015813575768       -0.14796488576083        0.07960456543054
O            8.40162724152063       -0.18412932197608        0.44439647648227
C            9.43350887761629        0.77949923469144        0.17169692637554
C            6.28250015693160       -1.31497508232152        0.37926356354104
O            6.90163130680590       -2.28119497027608        1.12034803462607
C            6.25091226269198       -3.50603851824321        1.36002407760646
C            4.97839933534952       -1.43504813974366       -0.08753776702371
C           -0.12527948996936       -1.34753371021656       -0.84943947058958
C           -3.91331428720433        3.04298010985765        0.62233271938891
C           -4.55327464830928        2.74049769466280        1.97642026673227
C           -3.48969620046851        4.51003625055053        0.57191399497377
H           -4.57219314080148        0.92563895600949       -1.34103646898778
H           -6.75616519086754        0.24365932184624       -1.89122682077887
H           -7.05218954376408       -1.20484924132196       -2.88388549494137
H           -5.53569884357825       -0.29461083962852       -3.08175372810885
H           -4.96131313381147       -3.69925383005002        2.42220292597063
H           -5.33150404471823       -4.96062447349640        1.22063803531364
H           -3.65442546042189       -4.39304307973285        1.41974128852473
H           -3.13614551243621       -2.20635479740796        2.16851005325841
H           -2.21129316605711        0.03658609224322        2.09520007258780
H           -3.01654697845850        2.56024612753962       -1.77964984405041
H           -1.57104842533237        3.25717753492569       -1.05187819170601
H           -1.87991574665372        0.29226188566274       -1.68928192639425
H           -1.18903043063299        1.48441137965186       -2.78886465521549
H           -0.73152020010577        1.57031103917497        0.94623994190663
H            0.64366540656773        1.95321498871679       -1.04551667267374
H            2.00966239342799       -0.79798373316025        0.60993921697191
H            2.20871658147148        0.88259798963161        0.07968004713211
H            2.79889317109038        0.04463228453594       -2.21715769764825
H            2.73984209451340       -1.61040298107955       -1.60071292522519
H            4.61627701706235        1.55909766900283       -1.56786421134198
H            6.88411265343483        1.82069167118934       -0.74673478388028
H            9.96770546848897        0.87907984785251        1.12163429099779
H            8.99811129480475        1.73143914302021       -0.08814356454566
H           10.33913826374584        0.58965191465429       -0.57013352039149
H            6.96595029871197       -4.10260552075689        1.92620148429952
H            5.33858963090030       -3.38780400353378        1.95735545367292
H            6.00597780143588       -4.03118555346031        0.42948603597578
H            4.41489536285663       -2.34198035216684        0.09063736894275
H           -0.33165259240805       -1.58597587052253       -1.89944895804329
H           -1.07767178478939       -1.31611231976100       -0.30978350863310
H            0.48068599267509       -2.14667185124689       -0.42667291853565
H           -4.67530847062523        2.88568581064903       -0.15107878229264
H           -3.83061123171924        2.90443249826339        2.76863790396151
H           -4.90032370511935        1.71065471910569        2.02247459313844
H           -5.40417382243086        3.39908577670122        2.13641140357535
H           -2.70262536343853        4.69313376591403        1.29579173744993
H           -3.14016760978668        4.79407357223030       -0.41729029329177
H           -4.34110167067820        5.13987700115615        0.82078895205285
H           -0.72838315281817        2.93306954514582        2.81360021741034
