25
 energy: 0.000000000000 xtb: 6.6.1 (8d0f1dd)
C            3.23720163006194        1.16630919979326        0.08434469647475
N            2.29877817382611        0.07527477071623        0.03981603040599
C            2.58028210190900       -1.21425402444508        0.03006176031096
N            1.43813958087363       -1.93419271955128        0.00098261760884
C            0.39035688448383       -1.05887472636071       -0.00790371836672
C            0.93510056364412        0.21347819449412        0.01709077491437
C            0.09450143893243        1.40504303904423       -0.00410947031874
O            0.49712751527797        2.54126714362870       -0.00342325688240
N           -1.25076640035757        1.06271879480407       -0.03085478223738
C           -2.21907211982101        2.15522099834493       -0.05001256985998
C           -1.81739487048744       -0.20012725993278       -0.04692818574614
O           -2.99983886758376       -0.37846417018721       -0.07008878229737
N           -0.92618586207120       -1.30210215599479       -0.03682761578324
C           -1.46982264913417       -2.64643102187190       -0.06029820460571
H            3.71247264356769        1.21471455160235        1.06488849150277
H            4.00791497605742        1.03430808813993       -0.67357694370751
H            2.69910007168542        2.09770118228144       -0.09130154882931
H            3.56654120610678       -1.63682992603973        0.04233140067262
H           -1.67107961066214        3.09322851271934       -0.02552706933167
H           -2.82428953597071        2.09428624779827       -0.95318082946668
H           -2.87644029173232        2.07745725625962        0.81450067533302
H           -1.17061996399332       -3.19584890659852        0.83242232437030
H           -1.14560257411436       -3.17511610292205       -0.95688275822323
H           -2.55549792440841       -2.55659984320617       -0.07459039797972
H            1.38130855184625       -2.94313852034425       -0.01389874181052
25
 energy: -1.873807912256 xtb: 6.6.1 (8d0f1dd)
C            3.27121845110230        1.15967984174249        0.07914268638293
N            2.32325662043334        0.08841763905711        0.03309759685342
C            2.60832650974017       -1.24038174581276        0.03355211040483
N            1.43413262048267       -1.94230885805518        0.00517207743977
C            0.40721295692030       -1.05246768192622       -0.01043117700212
C            0.94435970900834        0.22470081105480        0.00918361090181
C            0.11411157177280        1.40248469831819       -0.01092309006647
O            0.52177565780168        2.56429410275518       -0.02092112372265
N           -1.25750711980014        1.06553796492441       -0.01499741007660
C           -2.25163109616500        2.14761232647941       -0.01687205934777
C           -1.81187964483704       -0.18899840436822       -0.04920178688405
O           -3.00758842055472       -0.37235006696820       -0.07367015219213
N           -0.92362613851795       -1.29087816641081       -0.04166147831674
C           -1.46471386446923       -2.63153584741701       -0.06299285277439
H            3.75072185120260        1.20166677426340        1.06071479116829
H            4.03868837832746        1.01461249353324       -0.68291198353401
H            2.73531811252779        2.08946866700709       -0.09860525989004
H            3.58430601055277       -1.67122776771072        0.05289566720982
H           -1.68921671323486        3.08617389724855       -0.00525512486498
H           -2.85526412416687        2.08413442247004       -0.90044921957688
H           -3.07412260234783        2.08088871069134        0.75058248607880
H           -1.16422729048286       -3.18102578662944        0.83115689069299
H           -1.13626489638730       -3.16490325708771       -0.95711719229462
H           -2.54968670184026       -2.53846879338885       -0.07909034655991
H            1.36451483086805       -2.94609737159810       -0.00336376388203
25
 energy: 8.314648945881 xtb: 6.6.1 (8d0f1dd)
C            3.32124906801891        1.13818664196537        0.06889107107351
N            2.34846666325172        0.09550698260264        0.02130980434384
C            2.62972102336820       -1.26381755868802        0.04073697754975
N            1.42808541498957       -1.94163439582597        0.01366488970020
C            0.42493188703056       -1.04018706149060       -0.01226950475378
C            0.95441158696686        0.24151750283528       -0.00201661478354
C            0.13219597947292        1.40360975575699       -0.01666076007244
O            0.53884928775231        2.57652804954649       -0.05421910680257
N           -1.27448851212210        1.07990994238175        0.02116533004207
C           -2.30561254910203        2.14132919491901        0.02150804868972
C           -1.80040109682089       -0.17148213260522       -0.04264827595666
O           -3.00000922263216       -0.36657782893814       -0.08171593142694
N           -0.91718989151472       -1.27027117932741       -0.04785044973905
C           -1.45416305236132       -2.60830153143453       -0.06869021379568
H            3.81024437418444        1.17362086113494        1.04871745361704
H            4.08717544896125        0.97808849680782       -0.69518303185475
H            2.80284427506408        2.07653022429726       -0.10983174496882
H            3.59564773892549       -1.70592859074664        0.07156755528531
H           -1.73806825806992        3.08017174988919        0.04538764191228
H           -2.89395614768208        2.06791903675841       -0.86187388824652
H           -3.31021384083485        2.06439775388248        0.67138390661426
H           -1.15554053528648       -3.15719995413582        0.82802601674674
H           -1.12145078738802       -3.14743117861682       -0.95923767990291
H           -2.53852657392889       -2.51219794231499       -0.08835331061094
H            1.34801238769347       -2.94325823648146        0.01522571348717
25
 energy: 14.763524910552 xtb: 6.6.1 (8d0f1dd)
C            3.36243426718139        1.11451141379229        0.05940539077957
N            2.36210163455013        0.09560728072975        0.01413181420595
C            2.63427651074844       -1.27159789907530        0.04901510973782
N            1.42606490483869       -1.93580534614284        0.02457592128031
C            0.43343505416093       -1.02864216349342       -0.01167029440014
C            0.96127895278038        0.25558053408094       -0.00940092961176
C            0.13577891781942        1.41560009415396       -0.02322213098461
O            0.53898963754376        2.58706742322318       -0.08034275420868
N           -1.29166102088039        1.09623742106127        0.04584304741928
C           -2.35991432718650        2.13573354413509        0.04430321104017
C           -1.79554189667207       -0.16053988888244       -0.04143401184929
O           -2.99390025067125       -0.36821261570674       -0.09351392358621
N           -0.90981470033156       -1.25337666932949       -0.05317708574147
C           -1.44399513585327       -2.59076777925414       -0.07473644183080
H            3.85926087146197        1.14013841149621        1.03668996535934
H            4.12669407514297        0.93568448330598       -0.70434916500040
H            2.87175728377443        2.06793920022647       -0.12079800077275
H            3.59642614132549       -1.72313553545373        0.09117871152079
H           -1.80794106209932        3.08171961048000        0.08692823466360
H           -2.92230368641024        2.05251291478166       -0.85549184425498
H           -3.42899993671105        2.04071603770786        0.64585303162928
H           -1.14953015895718       -3.13652228006739        0.82534640859461
H           -1.10567991798550       -3.13069638062640       -0.96256488481458
H           -2.52816181078478       -2.49276229951748       -0.10079716723443
H            1.34116032115137       -2.93796090945327        0.03526168420667
25
 energy: 15.678796465690 xtb: 6.6.1 (8d0f1dd)
C            3.38032264115885        1.10154451141583        0.05463207421566
N            2.36526129369964        0.09531077308460        0.01244355349049
C            2.63166589255960       -1.26900652122552        0.05340666468178
N            1.42639692894183       -1.93037715293722        0.03166109862914
C            0.43465433306655       -1.02259650666119       -0.00923833937132
C            0.96307396620620        0.26230318670205       -0.01080292506514
C            0.13481952467191        1.42406774262714       -0.02602637926094
O            0.53460966446084        2.59092313517500       -0.09313111603365
N           -1.30080497331720        1.10302858063656        0.05689084635990
C           -2.38539968173569        2.13331484333481        0.05188966581315
C           -1.79595928461070       -0.15763337203022       -0.04255877126030
O           -2.99212545634880       -0.37188907396822       -0.10395563781319
N           -0.90648018681741       -1.24608541836987       -0.05534243031774
C           -1.43861503946802       -2.58462978161234       -0.07838181758850
H            3.88023701092402        1.11988118533302        1.03047962962810
H            4.14147974838085        0.91041989753574       -0.70971482922894
H            2.90766139063178        2.06380858675791       -0.12643156192242
H            3.59335722810491       -1.72355035455271        0.10165259943685
H           -1.84553936184676        3.08415073162965        0.10188430907450
H           -2.93491944275431        2.04692333704079       -0.85431740178174
H           -3.45672137398437        2.03134693439261        0.64650296557097
H           -1.14732898254641       -3.12813333647969        0.82370716013532
H           -1.09560724529282       -3.12341944468568       -0.96459279854112
H           -2.52283791971450       -2.48760189165594       -0.10948433828820
H            1.34101399356632       -2.93307198931509        0.04586167558465
25
 energy: 14.881174069050 xtb: 6.6.1 (8d0f1dd)
C            3.38416053835615        1.09741510799226        0.05295304135673
N            2.36461547325034        0.09569816464686        0.01260270886964
C            2.62876650558321       -1.26493238047080        0.05436589998107
N            1.42671358973926       -1.92746948646083        0.03451287445804
C            0.43333269711574       -1.02065452865156       -0.00657957567265
C            0.96241399554235        0.26439556921006       -0.00934804686476
C            0.13432961038901        1.42731614903313       -0.02534700154815
O            0.53136004654430        2.59176964962691       -0.09936288426396
N           -1.30421019747172        1.10353192065862        0.06255996391455
C           -2.39132280340686        2.13255867853479        0.05309615472275
C           -1.79786599814404       -0.15772390258831       -0.04283343589274
O           -2.99259300280799       -0.37379435282046       -0.10979144932398
N           -0.90639448303614       -1.24436222533537       -0.05513746742875
C           -1.43706788079895       -2.58419055151377       -0.07970991346385
H            3.88483227670624        1.11265727421369        1.02817413746763
H            4.14276811737612        0.90186712939295       -0.71232197701863
H            2.91842533445863        2.06228575309228       -0.12799658317905
H            3.59091614654854       -1.71941802849002        0.10493589551432
H           -1.85483098143937        3.08434331091843        0.10609067186014
H           -2.93547312555574        2.04627528754713       -0.85583710844037
H           -3.45276370866827        2.02930432171742        0.64928809415513
H           -1.14706616472234       -3.12697783854879        0.82295746220115
H           -1.09133340414360       -3.12175272357202       -0.96530798003158
H           -2.52133633791776       -2.48876978321241       -0.11331793936137
H            1.34183842443919       -2.93034391274818        0.04838835413599
25
 energy: 14.281835707346 xtb: 6.6.1 (8d0f1dd)
C            3.38408873155482        1.09672531542158        0.05227687699659
N            2.36376648049139        0.09628435626384        0.01271147631125
C            2.62723571365246       -1.26257870594068        0.05399363824073
N            1.42669794434479       -1.92638852475463        0.03551551768752
C            0.43215224076530       -1.02032696868118       -0.00458698641891
C            0.96139289531065        0.26501497679212       -0.00790936350461
C            0.13485544018976        1.42816863532841       -0.02438949462596
O            0.52936760902011        2.59220044459982       -0.10327498511845
N           -1.30556440256328        1.10235545227184        0.06678103584715
C           -2.39123811316906        2.13232263652027        0.05385632834071
C           -1.79930748447079       -0.15815275299694       -0.04286856796870
O           -2.99334830780569       -0.37461396675710       -0.11307372953993
N           -0.90712096390530       -1.24433737784244       -0.05440457092764
C           -1.43690247726334       -2.58488234513944       -0.07993875630849
H            3.88507361720301        1.11102436010309        1.02722032082732
H            4.14140634500118        0.90008128597967       -0.71358338576632
H            2.92037839205053        2.06215367446609       -0.12837866716318
H            3.58973757279605       -1.71662776835168        0.10600616096008
H           -1.85465589100160        3.08388740409046        0.10876135357365
H           -2.93188640636612        2.04716202245640       -0.85739080129409
H           -3.44760640710273        2.02853846946879        0.64873921001635
H           -1.14726237863488       -3.12758238796394        0.82281554639315
H           -1.08987655077371       -3.12171858283000       -0.96537455426449
H           -2.52116167378622       -2.49038569562659       -0.11459196056947
H            1.34199274239897       -2.92929535470578        0.04812225442309
25
 energy: 14.038614650611 xtb: 6.6.1 (8d0f1dd)
C            3.38334656165667        1.09710585009178        0.05197800021314
N            2.36341235123258        0.09661239898532        0.01256935552118
C            2.62681275101761       -1.26187333949332        0.05299831921444
N            1.42664830396279       -1.92625391744368        0.03574652018450
C            0.43161796221271       -1.02056095020750       -0.00341327642047
C            0.96070738201121        0.26513036114895       -0.00703424612720
C            0.13581284951546        1.42811278395622       -0.02397151828334
O            0.52811012928926        2.59250403822915       -0.10539887133927
N           -1.30617418132471        1.10118043720830        0.06978409924514
C           -2.39015470461316        2.13220053576964        0.05488948173941
C           -1.79999889480570       -0.15838452725799       -0.04294068757693
O           -2.99379724322490       -0.37503176552727       -0.11514706545091
N           -0.90763503146802       -1.24471675672420       -0.05373482888597
C           -1.43709514655608       -2.58544649104606       -0.07968132712014
H            3.88448636617800        1.11149513649559        1.02684506853352
H            4.14036925924219        0.90066521914217       -0.71409083295341
H            2.91958686115806        2.06246840331794       -0.12852325063376
H            3.58940685534908       -1.71571664455421        0.10651566361482
H           -1.85272735251034        3.08337140281124        0.11098880408165
H           -2.92807550255958        2.04875096525619       -0.85833759819970
H           -3.44561971186038        2.02804146535815        0.64641496573963
H           -1.14744469207598       -3.12824548344135        0.82301836032038
H           -1.08980032931904       -3.12205642142831       -0.96515066784757
H           -2.52133551394844       -2.49117044399803       -0.11453588071571
H            1.34175533937696       -2.92915365447669        0.04724530929390
25
 energy: 13.996828593682 xtb: 6.6.1 (8d0f1dd)
C            3.38249508035228        1.09792101567426        0.05185923362767
N            2.36356431925770        0.09649919978172        0.01213365635858
C            2.62716768038620       -1.26239026128387        0.05104909878547
N            1.42671213441837       -1.92663249765824        0.03552736021482
C            0.43162583563935       -1.02107336977587       -0.00285143604719
C            0.96045997022213        0.26495198593516       -0.00653021741326
C            0.13705509753568        1.42768067510274       -0.02393331305329
O            0.52722253786321        2.59275277954006       -0.10597174261366
N           -1.30646076458940        1.10030350670272        0.07170216376639
C           -2.38925573429753        2.13208303158761        0.05609780000629
C           -1.80010876770114       -0.15838382561445       -0.04314666376661
O           -2.99387547344712       -0.37535829744617       -0.11671890547225
N           -0.90774845863647       -1.24524768261676       -0.05305504165464
C           -1.43740907754643       -2.58575011322159       -0.07903623114700
H            3.88357283521252        1.11307670512088        1.02682354233443
H            4.13997590558936        0.90247630155451       -0.71409321702899
H            2.91740666105498        2.06283415480754       -0.12868150866649
H            3.58959403949964       -1.71627737947161        0.10711194419021
H           -1.85093894766482        3.08290346094848        0.11324878308045
H           -2.92447855298526        2.05114623403582       -0.85915163288888
H           -3.44583188126199        2.02743483300448        0.64310399440059
H           -1.14753579963199       -3.12875467814237        0.82351327131702
H           -1.09067982973027       -3.12251796754199       -0.96469200976217
H           -2.52164502822596       -2.49113544194206       -0.11349442321576
H            1.34133088662323       -2.92951376690901        0.04621939079557
25
 energy: 13.961246219961 xtb: 6.6.1 (8d0f1dd)
C            3.38162450933150        1.09874394649544        0.05174788658378
N            2.36369722489901        0.09640603390630        0.01172505609335
C            2.62751071093899       -1.26288334872113        0.04921010203837
N            1.42677088230115       -1.92701583051002        0.03531242117692
C            0.43162545823294       -1.02158992999033       -0.00229475166052
C            0.96019861745784        0.26476879359512       -0.00603416184479
C            0.13827680905274        1.42723892992244       -0.02389657722651
O            0.52635563699529        2.59298794978086       -0.10656399538710
N           -1.30672924785261        1.09941621136112        0.07362518314900
C           -2.38830331679556        2.13197398669221        0.05728913276674
C           -1.80022252333396       -0.15839468054932       -0.04334704544129
O           -2.99396449060146       -0.37566685720568       -0.11825564375804
N           -0.90787737885510       -1.24578121345375       -0.05239989266141
C           -1.43772891968105       -2.58606458100581       -0.07841061235278
H            3.88265072714514        1.11466085324951        1.02680295325412
H            4.13954467279252        0.90429207800738       -0.71410090038614
H            2.91521528379889        2.06320832025131       -0.12882327273800
H            3.58978296643657       -1.71680701922786        0.10763078398392
H           -1.84907351255577        3.08243373815092        0.11542983393812
H           -2.92090676113162        2.05347097425703       -0.85993222954372
H           -3.44600937324480        2.02688654046699        0.63985679042882
H           -1.14763772103464       -3.12926820227441        0.82399473304619
H           -1.09154459929231       -3.12298779696849       -0.96424458251642
H           -2.52195916686269       -2.49112207850981       -0.11248364009413
H            1.34091817979528       -2.92987821554804        0.04519632529882
25
 energy: 14.019238977919 xtb: 6.6.1 (8d0f1dd)
C            3.38228502364832        1.09821723331107        0.05186693735709
N            2.36378503426675        0.09626999519114        0.01185979174062
C            2.62748794354627       -1.26289519895637        0.04987188645828
N            1.42677482703368       -1.92683523033903        0.03531095005416
C            0.43177770083085       -1.02124802925945       -0.00288394974544
C            0.96058676676094        0.26482432859188       -0.00648076845000
C            0.13743693100661        1.42751209368769       -0.02397145347843
O            0.52710959624234        2.59282441767091       -0.10552898756354
N           -1.30645292060973        1.10022779980875        0.07166759940263
C           -2.38923640479407        2.13203633499765        0.05638412845954
C           -1.79997835526755       -0.15829780446201       -0.04322915456020
O           -2.99376924250048       -0.37546075590762       -0.11694216848665
N           -0.90761789331342       -1.24541569505532       -0.05278803851953
C           -1.43750349932027       -2.58573382931428       -0.07871675087516
H            3.88322390847131        1.11373934043125        1.02693018026198
H            4.14013195159882        0.90323835000173       -0.71392151422647
H            2.91650225517998        2.06289604559640       -0.12876294356109
H            3.58975794278695       -1.71686459102383        0.10760165838570
H           -1.85079318885109        3.08282677123147        0.11398739536218
H           -2.92366071537805        2.05214337175731       -0.85948255050565
H           -3.44635449488090        2.02707450291067        0.64197006211125
H           -1.14749819012673       -3.12884494215061        0.82373993293784
H           -1.09119614344556       -3.12263337313397       -0.96449338878562
H           -2.52174652041323       -2.49086506125754       -0.11288387869371
H            1.34116235546457       -2.92970747215588        0.04592892106749
25
 energy: 14.052885847515 xtb: 6.6.1 (8d0f1dd)
C            3.38286254186143        1.09774923058024        0.05193064483557
N            2.36388698927365        0.09609800580859        0.01177975726791
C            2.62749370893584       -1.26294446365154        0.04948970822392
N            1.42677959055566       -1.92663110748014        0.03525497458376
C            0.43189588173066       -1.02092460683404       -0.00331253812679
C            0.96096305163557        0.26488864347515       -0.00682463582794
C            0.13675202861976        1.42775304352065       -0.02399779622517
O            0.52776014685428        2.59270368662183       -0.10456743001377
N           -1.30627074903938        1.10094844986118        0.06977555374604
C           -2.39017394372151        2.13209310522888        0.05559802774721
C           -1.79979776290629       -0.15820591284170       -0.04307684623982
O           -2.99359605659453       -0.37537884390644       -0.11577516275935
N           -0.90737373523401       -1.24511361577407       -0.05291844166451
C           -1.43728211152510       -2.58545691456588       -0.07890307970043
H            3.88364164015056        1.11289501718692        1.02704548504207
H            4.14069945465801        0.90232012388272       -0.71374536184761
H            2.91762588813243        2.06259949412648       -0.12876365847456
H            3.58967868588104       -1.71690037875408        0.10841052504770
H           -1.85240397136636        3.08314123525350        0.11309462360804
H           -2.92592330960970        2.05140806033570       -0.85924940574375
H           -3.44658181983951        2.02698925120946        0.64356409380291
H           -1.14734482655701       -3.12855964266073        0.82354877894241
H           -1.09089068840733       -3.12227851964077       -0.96468187000942
H           -2.52153855307719       -2.49065172201876       -0.11314713654700
H            1.34135258752528       -2.92951301679112        0.04650508647991
