25
 energy: 0.000000000000 xtb: 6.6.1 (8d0f1dd)
C            3.23720163006194        1.16630919979326        0.08434469647475
N            2.29877817382611        0.07527477071623        0.03981603040599
C            2.58028210190900       -1.21425402444508        0.03006176031096
N            1.43813958087363       -1.93419271955128        0.00098261760884
C            0.39035688448383       -1.05887472636071       -0.00790371836672
C            0.93510056364412        0.21347819449412        0.01709077491437
C            0.09450143893243        1.40504303904423       -0.00410947031874
O            0.49712751527797        2.54126714362870       -0.00342325688240
N           -1.25076640035757        1.06271879480407       -0.03085478223738
C           -2.21907211982101        2.15522099834493       -0.05001256985998
C           -1.81739487048744       -0.20012725993278       -0.04692818574614
O           -2.99983886758376       -0.37846417018721       -0.07008878229737
N           -0.92618586207120       -1.30210215599479       -0.03682761578324
C           -1.46982264913417       -2.64643102187190       -0.06029820460571
H            3.71247264356769        1.21471455160235        1.06488849150277
H            4.00791497605742        1.03430808813993       -0.67357694370751
H            2.69910007168542        2.09770118228144       -0.09130154882931
H            3.56654120610678       -1.63682992603973        0.04233140067262
H           -1.67107961066214        3.09322851271934       -0.02552706933167
H           -2.82428953597071        2.09428624779827       -0.95318082946668
H           -2.87644029173232        2.07745725625962        0.81450067533302
H           -1.17061996399332       -3.19584890659852        0.83242232437030
H           -1.14560257411436       -3.17511610292205       -0.95688275822323
H           -2.55549792440841       -2.55659984320617       -0.07459039797972
H            1.38130855184625       -2.94313852034425       -0.01389874181052
25
 energy: -0.580927335830 xtb: 6.6.1 (8d0f1dd)
C            3.27332338138931        1.15782056215875        0.07852887039280
N            2.32471777603179        0.08733147599872        0.03276450564638
C            2.60926284621654       -1.24112481785831        0.03394288584904
N            1.43527858840653       -1.94282983679940        0.00554055689836
C            0.40854879389533       -1.05266890453433       -0.01077272526956
C            0.94604724493605        0.22428432914836        0.00831122056072
C            0.11646492724910        1.40279635903080       -0.01239295335857
O            0.52576090752049        2.56388576194823       -0.02311304947730
N           -1.25612340745172        1.06723377661744       -0.01412258123442
C           -2.25332350034383        2.14856186502767       -0.01195023262889
C           -1.80978425646354       -0.18764690604418       -0.05000481690198
O           -3.00537364137154       -0.37059285401339       -0.07429477447053
N           -0.92226172193968       -1.29022324843097       -0.04228499376364
C           -1.46404686825862       -2.63071102749399       -0.06318893083065
H            3.75263441691070        1.19955579390549        1.06010958927825
H            4.04078224323346        1.01213944246784       -0.68336262284549
H            2.73817050952922        2.08793435941507       -0.09940275645298
H            3.58504515572552       -1.67173466498230        0.05379113253871
H           -1.68893446304084        3.08763080341116       -0.00566460765356
H           -2.85975578697073        2.08314236162025       -0.88927613427155
H           -3.10139715143213        2.08297498084064        0.74180241669411
H           -1.16402698712400       -3.18007864777944        0.83119189137024
H           -1.13584466209840       -3.16446699099417       -0.95715043195588
H           -2.54899081610397       -2.53756682447616       -0.07941393442400
H            1.36604113949120       -2.94661854601176       -0.00255362754231
25
 energy: 14.165638967602 xtb: 6.6.1 (8d0f1dd)
C            3.32562554710306        1.13417182868705        0.06803024558216
N            2.35200080031432        0.09285784412637        0.02072413385398
C            2.63249720324928       -1.26605609486219        0.04179692195415
N            1.43109176279953       -1.94340123352580        0.01433148095711
C            0.42833906560820       -1.04125958011217       -0.01339690019933
C            0.95817130280489        0.24026693840472       -0.00441483947405
C            0.13812763998723        1.40440567378432       -0.02042021624738
O            0.54982701782471        2.57548045252377       -0.06012954581257
N           -1.27192229649602        1.08451018081993        0.02347700309061
C           -2.31039767918555        2.14435028079555        0.03334797765544
C           -1.79538673585770       -0.16800481758242       -0.04446892716041
O           -2.99500918217414       -0.36204907086324       -0.08410067472586
N           -0.91409916484065       -1.26887178183581       -0.04980413646241
C           -1.45282204814420       -2.60649046248989       -0.06925410644883
H            3.81376935932932        1.16943780940593        1.04813193233404
H            4.09163691225700        0.97320513768104       -0.69570081031045
H            2.80792126754988        2.07272434884462       -0.11129925287961
H            3.59828142659078       -1.70740092844890        0.07357588781460
H           -1.73603419047126        3.08246865116811        0.04240504460628
H           -2.90752119725816        2.06445689720027       -0.83599861105374
H           -3.37116697189945        2.07148192051525        0.65369053198990
H           -1.15517803928768       -3.15503000886677        0.82807948747647
H           -1.12076393600248       -3.14690444745018       -0.95925510752899
H           -2.53712595355812       -2.51019881125881       -0.08904051093953
H            1.35235275769349       -2.94512212448876        0.01672688807573
25
 energy: 25.478056705279 xtb: 6.6.1 (8d0f1dd)
C            3.37225332746039        1.10696437703714        0.05786611614999
N            2.36920180737322        0.09117913129817        0.01287815768157
C            2.63966596120557       -1.27635951726162        0.05090856990172
N            1.43082277942264       -1.93864399336589        0.02585625015382
C            0.43968891873235       -1.02982498264613       -0.01365869390666
C            0.96790584196132        0.25429589279412       -0.01327205467808
C            0.14563478389461        1.41739036459294       -0.02835688180918
O            0.55721290167333        2.58583597540503       -0.09110320498248
N           -1.28925295532434        1.10448384746276        0.05171488973663
C           -2.37296326429178        2.14016638037333        0.06347768000698
C           -1.78748961811887       -0.15425451442917       -0.04386006767657
O           -2.98606083181917       -0.36127476769292       -0.09866496404486
N           -0.90437241900606       -1.24987016058585       -0.05692737262841
C           -1.44144498079529       -2.58631448042829       -0.07617511300318
H            3.86824266583643        1.13220532347509        1.03550536609689
H            4.13671992123792        0.92636840298456       -0.70535986329904
H            2.88339718121722        2.06112180805469       -0.12335965206842
H            3.60150306876304       -1.72791272946277        0.09500836568080
H           -1.81146813108006        3.08494619212083        0.08238693881576
H           -2.94550838494437        2.04254053563882       -0.81919012989993
H           -3.53082436583293        2.05413787784722        0.62354728638490
H           -1.14845517439421       -3.13119720026929        0.82506485198022
H           -1.10402539975453       -3.12863443271616       -0.96287805709725
H           -2.52546755785222       -2.48730572999900       -0.10252396412795
H            1.34729859237204       -2.94101499805561        0.03814944278000
25
 energy: 29.042913059433 xtb: 6.6.1 (8d0f1dd)
C            3.38956860696407        1.09411250223535        0.05339978845365
N            2.37364336770965        0.08950308988549        0.01151013926034
C            2.63838285058742       -1.27481575114141        0.05435471067187
N            1.43256091631750       -1.93451914660262        0.03183728015369
C            0.44207827944071       -1.02521604752100       -0.01144618532598
C            0.97117789911995        0.25933644483944       -0.01393682792477
C            0.14806103685231        1.42498644094849       -0.02951172280754
O            0.55844479329315        2.58771682560083       -0.10336566241137
N           -1.29647699043701        1.11176487236713        0.06444416267578
C           -2.39725452675698        2.13991336033995        0.07256110306666
C           -1.78617698894006       -0.15061004684264       -0.04464280862569
O           -2.98268178604641       -0.36342144876648       -0.10988111777657
N           -0.90006100895234       -1.24278965384136       -0.05939612574348
C           -1.43631254148630       -2.58008162491003       -0.07960953526768
H            3.88826624111225        1.11303588973303        1.02968916519100
H            4.15082207270534        0.90310744818215       -0.71072721630213
H            2.91638433877581        2.05581692273163       -0.12841364710998
H            3.59990026110609       -1.72911473528177        0.10340372118558
H           -1.84506833441924        3.08860362336432        0.09196139975299
H           -2.95970952192198        2.03195206018732       -0.81275719026199
H           -3.58044928150934        2.05345042940993        0.62244923112601
H           -1.14628363520579       -3.12286693034933        0.82347992871405
H           -1.09516021021826       -3.12180748967819       -0.96470695581949
H           -2.52035183266286       -2.48159188666388       -0.11028629019573
H            1.34891066250866       -2.93743654605435        0.04662455146808
25
 energy: 29.282268128918 xtb: 6.6.1 (8d0f1dd)
C            3.39116358979409        1.09169139732161        0.05286572401993
N            2.37366646919796        0.08873303959231        0.01213483180241
C            2.63651915755157       -1.27205507683027        0.05437105615935
N            1.43362255027575       -1.93313698359739        0.03294588407605
C            0.44134519278260       -1.02481368764835       -0.00959346540383
C            0.97149103199568        0.25964329933639       -0.01227552950995
C            0.14991730952233        1.42706538743324       -0.02834040722371
O            0.55908747642487        2.58716225373535       -0.10794781759150
N           -1.29755327710142        1.11200664182367        0.06892988516357
C           -2.39953185044083        2.14055910414226        0.07239356153997
C           -1.78694176131663       -0.15042139560327       -0.04468182457980
O           -2.98226674900252       -0.36383691930034       -0.11421399175668
N           -0.89964877365535       -1.24182267595173       -0.05936321919896
C           -1.43567486681346       -2.57995145766159       -0.08041971818133
H            3.88994611984485        1.10932042443929        1.02880850069782
H            4.15075278385432        0.89930911103305       -0.71192620209882
H            2.92111335221380        2.05429617513373       -0.12864958881689
H            3.59857975736842       -1.72636178350696        0.10447917972876
H           -1.84846721741842        3.08918616519312        0.09049467234917
H           -2.96169624291189        2.02727680786030       -0.81145650659906
H           -3.58427435793835        2.05694641519362        0.62668104326103
H           -1.14627732817320       -3.12238285402146        0.82284807284923
H           -1.09333562889869       -3.12088972366225       -0.96527354879009
H           -2.51971716489172       -2.48224238792607       -0.11230479892714
H            1.35039509567253       -2.93625267435625        0.04652810317781
25
 energy: 29.316435141844 xtb: 6.6.1 (8d0f1dd)
C            3.39075090906729        1.09120769289561        0.05306453101415
N            2.37364700290099        0.08808678775637        0.01282092420893
C            2.63510064768345       -1.26996946517540        0.05381792832997
N            1.43439176043387       -1.93261089969836        0.03326777001219
C            0.44041403596419       -1.02512906700684       -0.00804075438727
C            0.97148733815122        0.25944058003061       -0.01066148861237
C            0.15268415813406        1.42827794868854       -0.02745170671916
O            0.55989997576154        2.58705693337871       -0.11227825860270
N           -1.29778886042608        1.11116328338354        0.07260017044993
C           -2.39830835028189        2.14127930040240        0.07116570859413
C           -1.78782774493676       -0.15034186726205       -0.04518186068748
O           -2.98228149326687       -0.36376155910893       -0.11774634560565
N           -0.89985846922884       -1.24167111076050       -0.05932339531774
C           -1.43586041509340       -2.58041315135633       -0.08085626759482
H            3.88928009680758        1.10867466607673        1.02894600267740
H            4.14963296511888        0.89897264822176       -0.71196276853944
H            2.92131596690840        2.05376642114579       -0.12824406133276
H            3.59757327893395       -1.72444070670375        0.10510219965677
H           -1.84715468574721        3.08944852374445        0.08712573926321
H           -2.96324468754232        2.02200747322764       -0.80958443280622
H           -3.58322768398194        2.06042589188822        0.63196940546533
H           -1.14654559066753       -3.12275632546991        0.82235431222387
H           -1.09304880778658       -3.12078695088866       -0.96573904564610
H           -2.51985762617688       -2.48305286514664       -0.11319064953341
H            1.35104094720716       -2.93584558009102        0.04506023963656
25
 energy: 29.488822751298 xtb: 6.6.1 (8d0f1dd)
C            3.39030391306926        1.09161478488217        0.05331653947735
N            2.37400026931568        0.08777958548284        0.01295763530914
C            2.63500838970890       -1.26985034800806        0.05314347680949
N            1.43460835411965       -1.93276951419522        0.03315005662465
C            0.44024016171473       -1.02543951142081       -0.00761176487950
C            0.97152439026845        0.25935484995952       -0.01006203835627
C            0.15455683401325        1.42845766827338       -0.02707386208599
O            0.56021769634509        2.58743124931285       -0.11335772376189
N           -1.29777447624610        1.11063398023635        0.07405810532102
C           -2.39680204740002        2.14156688120194        0.07036538280259
C           -1.78803487404192       -0.15010122154980       -0.04564469653848
O           -2.98232657212354       -0.36365207264805       -0.11918276761503
N           -0.89997067566640       -1.24177828381557       -0.05941371001108
C           -1.43612241263481       -2.58055776958635       -0.08090699080443
H            3.88866554437527        1.10950265506562        1.02930574502674
H            4.14941746705340        0.89992638903230       -0.71160812422320
H            2.92004818600549        2.05383260315569       -0.12804560886206
H            3.59738330447054       -1.72470645745150        0.10535123721797
H           -1.84543475240073        3.08953300004209        0.08474092651284
H           -2.96428449053908        2.01921148143313       -0.80821350937834
H           -3.58343203082494        2.06198908056403        0.63436548662734
H           -1.14661900423480       -3.12297308962500        0.82220357233317
H           -1.09357275835748       -3.12093867491836       -0.96590999168938
H           -2.52009268618447       -2.48304988082656       -0.11302226420346
H            1.35070693813087       -2.93598878242464        0.04412878449416
25
 energy: 29.871237988198 xtb: 6.6.1 (8d0f1dd)
C            3.38998071782397        1.09218012474782        0.05354808215183
N            2.37462681938997        0.08741369004743        0.01284026459067
C            2.63542431304995       -1.27049254013239        0.05204270672716
N            1.43473084465334       -1.93309088572111        0.03285623381148
C            0.44039486942754       -1.02573371572175       -0.00754497256349
C            0.97169295743023        0.25933217629645       -0.00974653314433
C            0.15653124290425        1.42835462732146       -0.02676493206550
O            0.56037400588828        2.58802656039338       -0.11288064735887
N           -1.29773665008825        1.11034396338953        0.07471533274395
C           -2.39505064728345        2.14175521184792        0.06946543859853
C           -1.78792323596383       -0.14966978294211       -0.04617582392148
O           -2.98223754526605       -0.36360049578940       -0.12006698179077
N           -0.89990948258349       -1.24194409466953       -0.05952408472741
C           -1.43633906210542       -2.58052326310253       -0.08079858172285
H            3.88815130605649        1.11070520681450        1.02970474864432
H            4.14963263057518        0.90120036541243       -0.71115411347792
H            2.91843305269008        2.05393014124288       -0.12797736160055
H            3.59745835205209       -1.72584361897237        0.10566431080570
H           -1.84371862328319        3.08971256314775        0.08226933396874
H           -2.96550853243567        2.01687199338361       -0.80672638056595
H           -3.58554835257602        2.06326648769993        0.63616037803840
H           -1.14659331652844       -3.12309576391539        0.82218616791305
H           -1.09436523747101       -3.12112500970505       -0.96596520597179
H           -2.52030203856480       -2.48270338834811       -0.11247861218620
H            1.35001628014453       -2.93624195055335        0.04338512925058
25
 energy: 30.368113131802 xtb: 6.6.1 (8d0f1dd)
C            3.39000444673453        1.09240152215070        0.05360620410117
N            2.37514926786315        0.08708301040216        0.01252074157174
C            2.63603110915762       -1.27138852167186        0.05080007998280
N            1.43478753141070       -1.93329343616273        0.03254741407763
C            0.44074421384104       -1.02584665841057       -0.00777826467301
C            0.97199278748760        0.25933410400181       -0.00983711329878
C            0.15767235978906        1.42814019908721       -0.02667688415470
O            0.56049467667931        2.58849235515659       -0.11123056486985
N           -1.29766097824439        1.11056742068269        0.07390077710914
C           -2.39386863862425        2.14178055308724        0.06871514018295
C           -1.78757222251549       -0.14929141845857       -0.04640130084357
O           -2.98200837795588       -0.36367416846917       -0.11984050877386
N           -0.89965130083440       -1.24207842948779       -0.05946948108484
C           -1.43634170570335       -2.58035788300484       -0.08061259409698
H            3.88801588597552        1.11129179511355        1.02988242258369
H            4.15006263667026        0.90184731176800       -0.71091838585161
H            2.91766774699752        2.05387969986200       -0.12803207985183
H            3.59772758047476       -1.72691243804661        0.10617971901719
H           -1.84295074040136        3.08996339789496        0.08099763374260
H           -2.96652402532892        2.01626850847162       -0.80575276935735
H           -3.58943187021307        2.06379634034193        0.63678326133176
H           -1.14653124306507       -3.12311379301900        0.82228431130119
H           -1.09482159364479       -3.12117774146595       -0.96589187345310
H           -2.52032482412265       -2.48230407907383       -0.11200936898048
H            1.34955194550886       -2.93637904857755        0.04326738043541
25
 energy: 30.889749987871 xtb: 6.6.1 (8d0f1dd)
C            3.39003566876629        1.09261354104885        0.05366229725712
N            2.37567997889875        0.08674097318159        0.01219136989833
C            2.63664765964597       -1.27229743319734        0.04950569527612
N            1.43484945066733       -1.93349430348354        0.03223320476913
C            0.44110035084487       -1.02596015092205       -0.00801321227235
C            0.97230617851164        0.25933343880453       -0.00993190822114
C            0.15883806778122        1.42792467071367       -0.02659050117960
O            0.56063558407398        2.58896028681926       -0.10954829937327
N           -1.29757866683432        1.11080748245267        0.07303163009839
C           -2.39265143477593        2.14180882377254        0.06793603555306
C           -1.78721089338208       -0.14890555134620       -0.04662574857738
O           -2.98176813084963       -0.36374926142929       -0.11959312676313
N           -0.89938295569857       -1.24221422598653       -0.05940570730874
C           -1.43633976278422       -2.58018930259437       -0.08042424675601
H            3.88788295160946        1.11186620974751        1.03005941519844
H            4.15050005757916        0.90248802397860       -0.71068367539741
H            2.91691191212669        2.05381995825236       -0.12808640502859
H            3.59800325765397       -1.72798369482228        0.10673580806485
H           -1.84216858903888        3.09022574785113        0.07970706484265
H           -2.96758512933715        2.01566746998062       -0.80474483935334
H           -3.59349495059766        2.06434250059711        0.63743837709451
H           -1.14647174417030       -3.12313413402388        0.82238370955262
H           -1.09527397306207       -3.12122715463324       -0.96581705001551
H           -2.52034352735122       -2.48190065767416       -0.11154116845685
H            1.34909330765896       -2.93651465491552        0.04315517724541
25
 energy: 30.720057841930 xtb: 6.6.1 (8d0f1dd)
C            3.39012326249935        1.09233143913306        0.05357019680058
N            2.37532074966201        0.08690074050059        0.01230324157702
C            2.63632817443585       -1.27180693129056        0.04990757805191
N            1.43483543501595       -1.93332361749386        0.03238989055842
C            0.44093540107276       -1.02584671436311       -0.00793653287160
C            0.97223823766234        0.25929267333020       -0.01000568617952
C            0.15796751339332        1.42803254162200       -0.02673180914914
O            0.56073222911551        2.58861445321436       -0.11017185151018
N           -1.29751417897625        1.11088746703363        0.07270795856348
C           -2.39326421480231        2.14175991039197        0.06823117010983
C           -1.78733809976603       -0.14916085462712       -0.04639045543937
O           -2.98184114565552       -0.36372241774620       -0.11922438142155
N           -0.89945899200789       -1.24214494952762       -0.05931574856605
C           -1.43626718988501       -2.58027080062056       -0.08051102065056
H            3.88804531829651        1.11123548182748        1.02988352482385
H            4.15026591917127        0.90186523318014       -0.71090371249712
H            2.91767941366108        2.05377214483484       -0.12806032978538
H            3.59791592896363       -1.72719013355561        0.10677308776657
H           -1.84276328217570        3.09016233083904        0.08079021512907
H           -2.96712376766068        2.01661045556209       -0.80532758478294
H           -3.59248646965879        2.06386024909167        0.63699554813491
H           -1.14654110462701       -3.12313787934015        0.82235802420597
H           -1.09484336149457       -3.12113934594431       -0.96582199376026
H           -2.52026676674095       -2.48215525763542       -0.11189362162810
H            1.34953565843741       -2.93639761624453        0.04341818866750
25
 energy: 30.625867456591 xtb: 6.6.1 (8d0f1dd)
C            3.39018670227849        1.09195078762166        0.05346895276925
N            2.37478239651311        0.08711721747801        0.01247178044963
C            2.63587763807874       -1.27109206234511        0.04997767972897
N            1.43483857100615       -1.93312492816423        0.03258640556481
C            0.44069091282990       -1.02572204215233       -0.00779042351124
C            0.97222107924617        0.25915633968936       -0.01014023019119
C            0.15672541579643        1.42813544902675       -0.02703532802694
O            0.56117370407144        2.58799478308597       -0.11115329863770
N           -1.29720339145151        1.11102621140540        0.07169743042790
C           -2.39359959263379        2.14172776829346        0.06838079701437
C           -1.78747887991411       -0.14957698398379       -0.04607179045044
O           -2.98191530653144       -0.36357296912001       -0.11848126761065
N           -0.89957530939555       -1.24207868927602       -0.05912917810164
C           -1.43618615628956       -2.58043721090789       -0.08064755455993
H            3.88818370292153        1.11033671146450        1.02967650006799
H            4.14985649860800        0.90104237984083       -0.71118915284679
H            2.91866696094841        2.05370131470395       -0.12795487833835
H            3.59782131334773       -1.72589858232375        0.10734299833515
H           -1.84313265782548        3.09011436157403        0.08214031599524
H           -2.96688845158251        2.01802772393348       -0.80577889058048
H           -3.59204610349257        2.06329764633219        0.63688765167744
H           -1.14670435995142       -3.12320598024119        0.82230781127390
H           -1.09420388630468       -3.12104314989652       -0.96582965429081
H           -2.52016878152734       -2.48256417515235       -0.11243337185245
H            1.35029264919013       -2.93628331871443        0.04373059184129
