25
 energy: -42.181474149780 gnorm: 0.009385938800 xtb: 6.6.1 (8d0f1dd)
C            2.96525492721711        1.79137421847176        0.12312057912774
N            2.35238045684329        0.68740021146860        0.00247308080095
C            2.68467590684497       -2.02240330628662       -0.31245596482628
N            1.41860491182315       -1.97216233263963        0.08655994803319
C            0.57089211314288       -0.88882082374289        0.04884373658314
C            1.02411212059085        0.43710779423279        0.01990301326307
C            0.05660094837332        1.53432812700496        0.01140972565234
O            0.37532212754262        2.70791037741639        0.01720242410500
N           -1.27413796017569        1.15262792543409       -0.00556575492600
C           -2.28820669122922        2.19108396270316       -0.07166037737299
C           -1.73936422917545       -0.14207045164571        0.03613545746360
O           -2.91720683755121       -0.39757310594169        0.02587168919285
N           -0.77469028086663       -1.15285674181714        0.09020869483809
C           -1.27686687476000       -2.51523135224317        0.09176939134543
H            3.13772533763667       -1.16245173969815       -0.78695604689035
H            4.04039373172241        1.78792631076909        0.01977419327844
H            2.46735062778003        2.74451719334233        0.30304553729201
H            3.24187656716870       -2.92896345697810       -0.15552037274364
H           -1.78655538655180        3.15526627268094       -0.13008487366504
H           -2.91596744809180        2.03501091514614       -0.95008837169882
H           -2.92320132191707        2.14996093177217        0.81431495912086
H           -1.06075625799452       -3.01807173798713        1.03701994180955
H           -0.87286460909726       -3.08077179213264       -0.74875161402595
H           -2.36149404062508       -2.45753933977103       -0.01515053624096
H            1.01655367544503       -2.81735951795799        0.47975315838458
