25
 energy: -42.144397423497 gnorm: 0.008618643369 xtb: 6.6.1 (8d0f1dd)
C            2.75414258273103        0.71413805766058       -1.21888295336856
N            2.25393758608045       -0.20464699912051       -0.22751903302078
C            3.09106854142624       -0.84007298121528        0.63036718401202
N            2.80967323847788       -1.57143542841497        1.62032390244403
C            0.08164660592997       -1.31315114560416       -0.37631587988853
C            0.85984705395001       -0.24995651183453       -0.07908725928284
C            0.19772368054133        0.99537710231859        0.37205130516068
O            0.82491037413103        1.98729627693772        0.67348035196691
N           -1.18147561502985        0.92538001620799        0.43070326558329
C           -1.91112386561862        2.10712292719957        0.86012547127386
C           -1.95282120876328       -0.16511924468180        0.07801522334460
O           -3.15535092379432       -0.14686565979477        0.09775077952748
N           -1.23779269453554       -1.31263019267827       -0.31984615156794
C           -2.01061898665477       -2.45865184100589       -0.75391029603547
H            2.68434868569644        1.74464283819905       -0.85427581328253
H            3.79322105104525        0.48974142533679       -1.44974846637144
H            2.15592772687539        0.62825535084197       -2.12683569449322
H            4.15007808981424       -0.69053621035136        0.41648262916030
H           -1.19139907457423        2.88803317915759        1.10173781322245
H           -2.57816823709144        2.44058667230797        0.06258637384196
H           -2.51988737597564        1.87038321634930        1.73471993861359
H           -2.04314744966736       -3.21804118871966        0.02983423171467
H           -1.55802915233301       -2.89219935084795       -1.64524527564601
H           -3.02900200156996       -2.13190014211626       -0.96814192128119
H            1.87272288300207       -1.77751162452978        1.94280189227143
