25
 energy: -42.256800933054 gnorm: 0.006510553856 xtb: 6.6.1 (8d0f1dd)
C            3.31111012141053        1.59650852772231        0.03655391999680
N            2.57094595198479        0.36285154690153        0.03618953583782
C            3.06332820995543       -0.87957697559501        0.05859517579794
N            2.05179024679203       -1.77847553860182        0.05283758539842
C            0.87627967725382       -1.09222998107219        0.02655723578787
C            1.20062457260974        0.26582203244116        0.01608761368549
C            0.17556618254384        1.27106292036745       -0.01350653501828
O            0.33002586860318        2.47449141095697       -0.02965248177315
N           -1.10819793520347        0.68196667259284       -0.02345902664046
C           -2.25421413106845        1.56990851288663       -0.05247127658285
C           -1.31721573797107       -0.66656736565459       -0.01192020049521
O           -2.58259939455392       -1.01395980208423       -0.02396818506757
N           -0.36896028180838       -1.57635708182585        0.01182568906651
C           -2.90672472971089       -2.40056408958649       -0.03026554832762
H            3.90081092125200        1.68866436389573        0.94981299039770
H            3.98394018485877        1.63924897217603       -0.82073250313762
H            2.60216066922375        2.42334904376610       -0.01773874571576
H            4.10467571486313       -1.13116498667988        0.07756508478500
H           -1.87904068641340        2.59264437085207       -0.06681492400954
H           -2.85402540202966        1.38036560259266       -0.94243383959848
H           -2.87402042174621        1.41297315939325        0.83009690431822
H           -2.48956930666125       -2.90260868638448        0.84178156303840
H           -2.52830125699726       -2.88257253071275       -0.93460665992731
H           -3.99647221670714       -2.43410603867795       -0.00597347583791
H            2.14851469360959       -2.78343551806695        0.06681172191570
