25
 energy: 0.000000000000 xtb: 6.6.1 (8d0f1dd)
C            3.23720163006194        1.16630919979326        0.08434469647475
N            2.29877817382611        0.07527477071623        0.03981603040599
C            2.58028210190900       -1.21425402444508        0.03006176031096
N            1.43813958087363       -1.93419271955128        0.00098261760884
C            0.39035688448383       -1.05887472636071       -0.00790371836672
C            0.93510056364412        0.21347819449412        0.01709077491437
C            0.09450143893243        1.40504303904423       -0.00410947031874
O            0.49712751527797        2.54126714362870       -0.00342325688240
N           -1.25076640035757        1.06271879480407       -0.03085478223738
C           -2.21907211982101        2.15522099834493       -0.05001256985998
C           -1.81739487048744       -0.20012725993278       -0.04692818574614
O           -2.99983886758376       -0.37846417018721       -0.07008878229737
N           -0.92618586207120       -1.30210215599479       -0.03682761578324
C           -1.46982264913417       -2.64643102187190       -0.06029820460571
H            3.71247264356769        1.21471455160235        1.06488849150277
H            4.00791497605742        1.03430808813993       -0.67357694370751
H            2.69910007168542        2.09770118228144       -0.09130154882931
H            3.56654120610678       -1.63682992603973        0.04233140067262
H           -1.67107961066214        3.09322851271934       -0.02552706933167
H           -2.82428953597071        2.09428624779827       -0.95318082946668
H           -2.87644029173232        2.07745725625962        0.81450067533302
H           -1.17061996399332       -3.19584890659852        0.83242232437030
H           -1.14560257411436       -3.17511610292205       -0.95688275822323
H           -2.55549792440841       -2.55659984320617       -0.07459039797972
H            1.38130855184625       -2.94313852034425       -0.01389874181052
25
 energy: -2.305544053802 xtb: 6.6.1 (8d0f1dd)
C            3.23262019679774        1.17697127382803        0.08461559638871
N            2.29571924271693        0.09340492215290        0.03579757093167
C            2.59939987910937       -1.23190036370468        0.02971519196778
N            1.45799171788011       -1.98265802132689        0.00400232143449
C            0.40354973276126       -1.08599356334679       -0.00953384054637
C            0.91994768516455        0.20944169727758        0.01349864758367
C            0.09434866386000        1.39543388892564       -0.00531707127855
O            0.49309277097655        2.56147497536004       -0.00266745781484
N           -1.26848619591196        1.06126650330050       -0.03144867738461
C           -2.22993104823135        2.16246068802717       -0.04862533323317
C           -1.82506279770319       -0.19250170146690       -0.04891352796572
O           -3.02254829997168       -0.37118124660491       -0.07206330385092
N           -0.93524402355718       -1.30162669017306       -0.03874604457900
C           -1.48651230301243       -2.63257621671837       -0.06224131766310
H            3.71520831931042        1.21682700672058        1.06497781478906
H            3.99958672274869        1.03723664949039       -0.67883256852357
H            2.69826338364377        2.10944925041023       -0.08788916591051
H            3.57887607018560       -1.64235708346491        0.04326386677978
H           -1.67467023509578        3.09817512899307       -0.02336237238558
H           -2.83895602092706        2.11423892390208       -0.95140168275697
H           -2.89047109054657        2.09562877515441        0.81575745968645
H           -1.18106307146634       -3.17878244456373        0.83105594803584
H           -1.15401577146125       -3.15896164037181       -0.95793577733618
H           -2.57120850086934       -2.53238662093668       -0.07786221853453
H            1.50177964153531       -3.03205548869190        0.00118983831347
25
 energy: 5.606373369313 xtb: 6.6.1 (8d0f1dd)
C            3.22593907734666        1.18217629267895        0.08385473228607
N            2.28655151325233        0.10751145943615        0.02919114559335
C            2.61171007225701       -1.24214454215317        0.03050296253859
N            1.47871484783651       -2.03288774275074        0.00814958637843
C            0.41511752411416       -1.12272876654904       -0.01025107555970
C            0.89862826477765        0.19491397905400        0.00831194802960
C            0.09354216226224        1.37296920558647       -0.00721372207686
O            0.48380511361861        2.55551863482914       -0.00154092995743
N           -1.29257097987149        1.06502370597351       -0.03231196245111
C           -2.24282718856715        2.17704979022613       -0.04684245562714
C           -1.83009133592402       -0.17906866878825       -0.05090055732985
O           -3.03405015470151       -0.36320071219975       -0.07500548505689
N           -0.94667149067039       -1.29521809456305       -0.04048230728542
C           -1.51058551860867       -2.61311255277481       -0.06497029955113
H            3.71803658728644        1.21574839246931        1.06218564193617
H            3.98910739057512        1.04163897370567       -0.68579060688412
H            2.69849244610124        2.11961954604101       -0.08158020096664
H            3.58958062723429       -1.63607610721215        0.04511865766667
H           -1.67815534790480        3.10870247448186       -0.02039099029541
H           -2.85622422830323        2.14134262869062       -0.94864117329508
H           -2.90660805671126        2.12012023949947        0.81711237065669
H           -1.20241205041060       -3.15959373055352        0.82784222335351
H           -1.17148283781895       -3.14074726972317       -0.95818359515601
H           -2.59402685815986       -2.50389287210210       -0.08301214253897
H            1.68869508892591       -3.12463566113048        0.02188213173994
25
 energy: 10.794060832566 xtb: 6.6.1 (8d0f1dd)
C            3.22235365516950        1.18191132067630        0.08241966299027
N            2.28398739707174        0.10657464518395        0.02632687792757
C            2.61406048986516       -1.24376295967044        0.03247290311329
N            1.48967046875166       -2.05026253546270        0.01157473873025
C            0.42051575163051       -1.14018904191059       -0.00777283447372
C            0.89337625793693        0.18322254507877        0.00733671535563
C            0.09341249779553        1.36237260812642       -0.00757136797288
O            0.48118610777440        2.54340784872673       -0.00159532477300
N           -1.30215042234935        1.07066701585491       -0.03276958763800
C           -2.24878848457937        2.18530030172346       -0.04626538676591
C           -1.83100191847126       -0.17435485321490       -0.05185329179199
O           -3.03355803479605       -0.36574151699472       -0.07760905507082
N           -0.94786784089595       -1.29123867510533       -0.04010007899031
C           -1.52385698383955       -2.60465854258261       -0.06623277214176
H            3.71810417985292        1.21349958975704        1.05886706850467
H            3.98238111137694        1.04666571557642       -0.69109307270617
H            2.69660476180578        2.12251283272109       -0.07690800821502
H            3.59704308861339       -1.62902615877906        0.04591388283877
H           -1.68184155125829        3.11526057156175       -0.01904557266862
H           -2.86402043474281        2.15384769122360       -0.94721920276568
H           -2.91386119120493        2.13108055512269        0.81716569953881
H           -1.22060232472141       -3.15272206017955        0.82704865818142
H           -1.18555086811313       -3.13397669666749       -0.95852429395393
H           -2.60675111916239       -2.48868175087555       -0.08678740685649
H            1.77937007442622       -3.15267984771816        0.02925494575094
25
 energy: 11.662427939880 xtb: 6.6.1 (8d0f1dd)
C            3.22148813251704        1.18044355397472        0.08174985288319
N            2.28449372055562        0.10275840179579        0.02542410516156
C            2.61186657590132       -1.24313984451677        0.03397731732958
N            1.49123469245502       -2.05190337283934        0.01308121309913
C            0.42121353962435       -1.14378134315915       -0.00595995708204
C            0.89432769639249        0.17884348546932        0.00763549177186
C            0.09391134607022        1.36065751110203       -0.00744904625930
O            0.48180617612042        2.53792011462567       -0.00155714619277
N           -1.30331333151131        1.07378146437390       -0.03287415585530
C           -2.24984908599207        2.18727969778409       -0.04628789339878
C           -1.83128274404500       -0.17341972533989       -0.05211513671837
O           -3.03184105386606       -0.36806826695687       -0.07879217960570
N           -0.94672091328912       -1.28919571940073       -0.03947773115678
C           -1.52708311446977       -2.60294775901587       -0.06647114728292
H            3.71785144986377        1.21158036309653        1.05735350117872
H            3.97984554649162        1.04908298434400       -0.69351486478168
H            2.69452730765499        2.12139405165842       -0.07484183726385
H            3.59782002639560       -1.62549180722453        0.04559738562471
H           -1.68369484041724        3.11730431271790       -0.01886111008003
H           -2.86511227018555        2.15555735877616       -0.94715268916490
H           -2.91498596166616        2.13237576710867        0.81707499473564
H           -1.22700409231427       -3.15161799477425        0.82720236075426
H           -1.18982369977580       -3.13272403269708       -0.95855985027010
H           -2.60970807425407       -2.48517362551231       -0.08826530414484
H            1.80224763968012       -3.15248697321840        0.03011772286602
25
 energy: 11.463910526224 xtb: 6.6.1 (8d0f1dd)
C            3.22122125020023        1.17936691202186        0.08148584741625
N            2.28531244255464        0.09991399230724        0.02458147303038
C            2.60924712025757       -1.24259539411253        0.03536213437570
N            1.48990462101955       -2.05107311158936        0.01384245036531
C            0.42044141801791       -1.14408268255437       -0.00532831308699
C            0.89553209931025        0.17729824465290        0.00754829171295
C            0.09445331215357        1.36068483375073       -0.00752532675501
O            0.48277367275029        2.53596692514264       -0.00130787451785
N           -1.30263452564089        1.07475310124788       -0.03291654159718
C           -2.24936260387282        2.18725502499239       -0.04629193058484
C           -1.83180090645026       -0.17324863795516       -0.05224126121797
O           -3.03120691547096       -0.36860824998079       -0.07925265512392
N           -0.94621467364792       -1.28816995452547       -0.03928709208639
C           -1.52731118214853       -2.60298889671943       -0.06653531215085
H            3.71765226604174        1.21005327448558        1.05672945157164
H            3.97888785311867        1.05006746882288       -0.69446858348171
H            2.69284513285176        2.11984525047485       -0.07390038652220
H            3.59649806456627       -1.62383936173909        0.04491848951906
H           -1.68420006259280        3.11775501973729       -0.01880558838822
H           -2.86457821703981        2.15506796376666       -0.94720730418763
H           -2.91449854385186        2.13174940550970        0.81709891226894
H           -1.22796937581164       -3.15135939625479        0.82732896430693
H           -1.18992671396297       -3.13240013615631       -0.95855762526763
H           -2.60980165007864       -2.48538123411673       -0.08879892064803
H            1.80695078566287       -3.14700175903653        0.03056259719655
25
 energy: 11.187413053672 xtb: 6.6.1 (8d0f1dd)
C            3.22114574736030        1.17911154480139        0.08148825931164
N            2.28571356311533        0.09910385267326        0.02390547380154
C            2.60813324254295       -1.24268069901905        0.03649608661944
N            1.48863462951812       -2.05093597924892        0.01408797524739
C            0.41983912354420       -1.14381284705413       -0.00543491662619
C            0.89583244371419        0.17728570774475        0.00723766258933
C            0.09468712414445        1.36079925940187       -0.00766684398155
O            0.48313704159404        2.53604504270589       -0.00116133761588
N           -1.30212382416780        1.07451034189487       -0.03292955483283
C           -2.24882214026179        2.18688586667218       -0.04627973166832
C           -1.83216486469886       -0.17324500793894       -0.05224821309127
O           -3.03139610320226       -0.36831777949715       -0.07925746197878
N           -0.94634700090385       -1.28796378977237       -0.03935720941183
C           -1.52690226182030       -2.60329719470553       -0.06654294723227
H            3.71752482998350        1.20945432106759        1.05671337230539
H            3.97886439295396        1.05028058814184       -0.69447468283541
H            2.69215040483148        2.11919471176676       -0.07365334925432
H            3.59555185769550       -1.62379265657276        0.04409563937523
H           -1.68397410797144        3.11762726990410       -0.01878459709901
H           -2.86409164521190        2.15468391472727       -0.94721776306964
H           -2.91401026557171        2.13135316380699        0.81712306725754
H           -1.22715309986928       -3.15132200654406        0.82733374310945
H           -1.18907782699455       -3.13238190302335       -0.95853416079080
H           -2.60938210961018       -2.48618031528028       -0.08881761565664
H            1.80644551722212       -3.14337680448017        0.03091300167511
25
 energy: 10.920783262773 xtb: 6.6.1 (8d0f1dd)
C            3.22107840372323        1.17904874974720        0.08159412751488
N            2.28599165082585        0.09881692219824        0.02309737093336
C            2.60749351488395       -1.24306463881209        0.03828678353653
N            1.48750925318165       -2.05137103179935        0.01432409350162
C            0.41943659897916       -1.14357934285858       -0.00575599889240
C            0.89584300593606        0.17757586211119        0.00682160203864
C            0.09481272809516        1.36077475596325       -0.00784641976905
O            0.48323259395041        2.53643896562651       -0.00111335856766
N           -1.30181730916378        1.07403544071437       -0.03295450243558
C           -2.24838634512849        2.18658319828936       -0.04627938150366
C           -1.83243786453476       -0.17326042702496       -0.05223287751055
O           -3.03173294982915       -0.36799714264990       -0.07912887944926
N           -0.94659312937603       -1.28796733826638       -0.03949770880712
C           -1.52652522278270       -2.60356399711544       -0.06653668137420
H            3.71733885848836        1.20909109340818        1.05690148500907
H            3.97910307780507        1.05043855537360       -0.69418664915678
H            2.69171457511894        2.11880953217289       -0.07349295249398
H            3.59487376087816       -1.62424593125013        0.04249859336900
H           -1.68356856109648        3.11741468258992       -0.01877932123352
H           -2.86372111801059        2.15450632995915       -0.94722332477339
H           -2.91363333229310        2.13118674592162        0.81712229387071
H           -1.22625241161565       -3.15133023700734        0.82731730258920
H           -1.18832972511633       -3.13244771909395       -0.95849780261097
H           -2.60902687089210       -2.48685987284880       -0.08872808773808
H            1.80581148590939       -3.14000455317655        0.03132419010047
25
 energy: 10.827406272995 xtb: 6.6.1 (8d0f1dd)
C            3.22105162443746        1.17910623911852        0.08177120551128
N            2.28597163212256        0.09905909842971        0.02262991830127
C            2.60762804982899       -1.24343007417640        0.04047054601919
N            1.48728488797113       -2.05208070404432        0.01456665913008
C            0.41952138650200       -1.14356944435122       -0.00609946848061
C            0.89565478054605        0.17779708157006        0.00657007867396
C            0.09476290576909        1.36062618611559       -0.00798781046718
O            0.48302626854817        2.53663156702699       -0.00125292562317
N           -1.30192311611313        1.07379695015545       -0.03300587614637
C           -2.24838652626683        2.18660764677939       -0.04630694659288
C           -1.83240878776059       -0.17329461113278       -0.05222275318060
O           -3.03186355293720       -0.36800573160872       -0.07896365841403
N           -0.94668425970605       -1.28815125973528       -0.03962204561682
C           -1.52651666919160       -2.60358751849350       -0.06653112392079
H            3.71715361417276        1.20911549435344        1.05720516017235
H            3.97941050026494        1.05047908849810       -0.69378131651079
H            2.69179704736803        2.11886456200331       -0.07346764434627
H            3.59489843476617       -1.62475277790827        0.04021152696997
H           -1.68331792977946        3.11729947058494       -0.01880671084036
H           -2.86371422740089        2.15463329458505       -0.94724317716535
H           -2.91362132307873        2.13132430380470        0.81709240124317
H           -1.22613034158896       -3.15137658842691        0.82730782570667
H           -1.18837690993132       -3.13257606387723       -0.95848123871149
H           -2.60904448692774       -2.48685073988089       -0.08863122723285
H            1.80604166632139       -3.13863686721771        0.03161249766892
