25
 energy: -42.543581308600 xtb: 6.6.1 (8d0f1dd)
C            3.21245794053007        1.16690597451183        0.08069457615889
N            2.25259696536110        0.09088060671930        0.02576479019433
C            2.51189140038710       -1.22649073487925        0.02160134599025
N            1.42908762200447       -1.98786286479135       -0.01184732204710
C            0.38797618096917       -1.09952239833298       -0.00799217414874
C            0.87980255346133        0.20286561984843        0.00826868693640
C            0.06794196986223        1.39307717439458       -0.00563942789108
O            0.46306838276871        2.54508989575115        0.00393678457718
N           -1.29110739754923        1.08432339384223       -0.03167661887026
C           -2.24651668089437        2.18464597011763       -0.04682356153105
C           -1.83601884943004       -0.18534019197022       -0.05175533696765
O           -3.03655230068923       -0.34649358616426       -0.08092737538740
N           -0.96293879749116       -1.27360453569015       -0.03840126377360
C           -1.51512034661613       -2.60952349722609       -0.06517073452326
H            3.70658473410660        1.19064336564291        1.05483089987153
H            3.97322732679768        1.03283667831333       -0.69021361644539
H            2.70189102400024        2.11791948478586       -0.07470341515799
H            3.51308609413837       -1.60940384993349        0.03774738274806
H           -1.68951659254907        3.11992315428974       -0.01952944175566
H           -2.85348937336828        2.13482403586658       -0.95006297699134
H           -2.90530264838406        2.11505606103808        0.81783129041019
H           -1.20183619540725       -3.15343251532262        0.82452334651057
H           -1.16996857302960       -3.13244032943518       -0.95597430677531
H           -2.59645557770414       -2.51519831764583       -0.08284870137728
H            2.21176063156410       -3.52214737723168        0.06435975278191
