25
 energy: 0.000000000000 xtb: 6.6.1 (8d0f1dd)
C            3.23720163006194        1.16630919979326        0.08434469647475
N            2.29877817382611        0.07527477071623        0.03981603040599
C            2.58028210190900       -1.21425402444508        0.03006176031096
N            1.43813958087363       -1.93419271955128        0.00098261760884
C            0.39035688448383       -1.05887472636071       -0.00790371836672
C            0.93510056364412        0.21347819449412        0.01709077491437
C            0.09450143893243        1.40504303904423       -0.00410947031874
O            0.49712751527797        2.54126714362870       -0.00342325688240
N           -1.25076640035757        1.06271879480407       -0.03085478223738
C           -2.21907211982101        2.15522099834493       -0.05001256985998
C           -1.81739487048744       -0.20012725993278       -0.04692818574614
O           -2.99983886758376       -0.37846417018721       -0.07008878229737
N           -0.92618586207120       -1.30210215599479       -0.03682761578324
C           -1.46982264913417       -2.64643102187190       -0.06029820460571
H            3.71247264356769        1.21471455160235        1.06488849150277
H            4.00791497605742        1.03430808813993       -0.67357694370751
H            2.69910007168542        2.09770118228144       -0.09130154882931
H            3.56654120610678       -1.63682992603973        0.04233140067262
H           -1.67107961066214        3.09322851271934       -0.02552706933167
H           -2.82428953597071        2.09428624779827       -0.95318082946668
H           -2.87644029173232        2.07745725625962        0.81450067533302
H           -1.17061996399332       -3.19584890659852        0.83242232437030
H           -1.14560257411436       -3.17511610292205       -0.95688275822323
H           -2.55549792440841       -2.55659984320617       -0.07459039797972
H            1.38130855184625       -2.94313852034425       -0.01389874181052
25
 energy: 0.035563799318 xtb: 6.6.1 (8d0f1dd)
C            3.22979386255376        1.17615625314939        0.08416619918227
N            2.29067517191389        0.09348309705486        0.03552042845964
C            2.59581114916779       -1.23121417520286        0.02949371609581
N            1.46469984385846       -1.99616811050531        0.00414184064805
C            0.40415818002399       -1.09324189656029       -0.00986315432147
C            0.91600409245518        0.20750621559854        0.01332339281600
C            0.09175709817855        1.39746365049230       -0.00511709231686
O            0.49080965856463        2.56349990807642       -0.00213634544113
N           -1.27081901591550        1.06576537333448       -0.03143409361245
C           -2.23270888095513        2.16756344272951       -0.04851182602723
C           -1.82575068316565       -0.18870937536498       -0.04906191859424
O           -3.02332575680154       -0.36626641958985       -0.07223889328379
N           -0.93641016874592       -1.30047828542012       -0.03903185364774
C           -1.48916253800337       -2.62942471799123       -0.06253650185576
H            3.71335589304228        1.21426984076290        1.06414125581362
H            3.99694555906380        1.03443225332982       -0.67888304665534
H            2.70029712788737        2.11145006844465       -0.08792702963905
H            3.57461178979188       -1.63782565148376        0.04307100544863
H           -1.67960531113454        3.10474976878176       -0.02317042435241
H           -2.84206113079502        2.11891846971235       -0.95109143659979
H           -2.89353906927813        2.10007270986226        0.81563731901633
H           -1.18205472769462       -3.17429337617606        0.83070796185540
H           -1.15476119857009       -3.15463667398504       -0.95791381789533
H           -2.57373470970944       -2.52952294007448       -0.07833183115485
H            1.54722843220361       -3.06452082680325        0.00408004220895
25
 energy: 16.542511471622 xtb: 6.6.1 (8d0f1dd)
C            3.22116637238670        1.17943745070457        0.08322615458591
N            2.27538661387055        0.10856570036639        0.02913554630004
C            2.60066333880332       -1.24097159220833        0.03007678666906
N            1.48848839800344       -2.06389713727049        0.00754771434836
C            0.41457341688891       -1.13639671289057       -0.01049402077378
C            0.88894428664833        0.19156408841824        0.00840008885543
C            0.08787409262496        1.37826254681858       -0.00658439030079
O            0.47947972375184        2.56092593265446       -0.00022376725162
N           -1.29868816965172        1.07690606624299       -0.03222496104396
C           -2.25008197504393        2.18869835098537       -0.04691260855219
C           -1.83296226230472       -0.16787989546313       -0.05092238081891
O           -3.03718225839587       -0.35093902424919       -0.07514154734227
N           -0.95121357724969       -1.28886862956336       -0.04084272875374
C           -1.51501855111157       -2.60482542647341       -0.06528352551972
H            3.71407575396451        1.20978554905299        1.06128434695113
H            3.98445360703543        1.03366492173770       -0.68562170834595
H            2.70419255169767        2.12292167392257       -0.08239787255570
H            3.57772054613739       -1.62822261532597        0.04411195642852
H           -1.69020234725718        3.12343589928379       -0.02043634002136
H           -2.86329110941576        2.14996475312640       -0.94870904706322
H           -2.91381932981701        2.12861657209643        0.81686049037770
H           -1.20130650478182       -3.14903315252981        0.82679502523792
H           -1.17024109411404       -3.13058989264160       -0.95724387508233
H           -2.59824356275721       -2.50090676848601       -0.08349715993891
H            1.79744670802369       -3.20119005613658        0.02613171975767
25
 energy: 31.357369787945 xtb: 6.6.1 (8d0f1dd)
C            3.21600562341217        1.17791072764485        0.08156824223646
N            2.26995559598851        0.10764936206716        0.02611895053513
C            2.60040733796614       -1.24468756410017        0.03210723964791
N            1.50449745382436       -2.09599629282105        0.01108201492774
C            0.42097786363600       -1.15907705337588       -0.00742393041340
C            0.87983057639541        0.17780006829433        0.00758284164454
C            0.08546368829705        1.36752360852716       -0.00671104120274
O            0.47462681010399        2.54920448636667        0.00046763644273
N           -1.31342688593406        1.08844832391554       -0.03279746860735
C           -2.26185628301866        2.20295442472131       -0.04631955478901
C           -1.83649145674977       -0.15719660517622       -0.05223465699408
O           -3.03942983004688       -0.34950629022951       -0.07824575403120
N           -0.95472844392819       -1.27927897570071       -0.04065138359731
C           -1.53171156480432       -2.58996691025893       -0.06683242362832
H            3.71258308888864        1.20562218161376        1.05771696355665
H            3.97511949166669        1.03555551620621       -0.69167382948369
H            2.70425813144952        2.12689437362646       -0.07795684092920
H            3.58434631552130       -1.61900621675880        0.04414036586378
H           -1.70190233142772        3.13732632304328       -0.01896622228618
H           -2.87781242869804        2.16884274131932       -0.94690982925060
H           -2.92779861204304        2.14571311211049        0.81648243635972
H           -1.22014328074933       -3.13439493254099        0.82569495985280
H           -1.18459911207764       -3.11631784238332       -0.95742349103599
H           -2.61449781052921       -2.48153807951025       -0.08787883333703
H            1.94854073079328       -3.27544988442866        0.03609750466597
25
 energy: 38.062738852993 xtb: 6.6.1 (8d0f1dd)
C            3.21517357657615        1.17540018929394        0.08136262654378
N            2.26884279040400        0.10397506806851        0.02483238924689
C            2.59382740669614       -1.24514897107320        0.03239238567917
N            1.50512762003382       -2.10144001765841        0.00998817722788
C            0.41937460431199       -1.16092539362663       -0.00506606356179
C            0.87845503647555        0.17496799716521        0.00751960979534
C            0.08414784243640        1.36777180815021       -0.00712464706645
O            0.47342276676791        2.54563311858820        0.00126470126631
N           -1.31779884481432        1.09567595168088       -0.03319387414855
C           -2.26581904205359        2.20838834626238       -0.04641541201348
C           -1.84011442280544       -0.15222079565734       -0.05256907322510
O           -3.04079258731150       -0.34911310393344       -0.07951753158308
N           -0.95646556691420       -1.27221393301938       -0.03977596377354
C           -1.53557207018849       -2.58493466724029       -0.06695155411965
H            3.71169865265727        1.20282159549745        1.05691982781409
H            3.97254875830733        1.03595685095254       -0.69339811737922
H            2.70396551853773        2.12577217560454       -0.07615271518695
H            3.58168317384015       -1.61463802998367        0.04308204722864
H           -1.70673170527915        3.14283907474839       -0.01892284918061
H           -2.88166790338561        2.17315535353099       -0.94705603547884
H           -2.93156747115753        2.14965985680402        0.81656355533157
H           -1.22464809067621       -3.12930820133153        0.82563303683648
H           -1.18748224678903       -3.11088642158143       -0.95717427022598
H           -2.61823239641833       -2.47833182454737       -0.08902361994026
H            2.01083926868519       -3.31382742452255        0.03981726606061
25
 energy: 43.549061510461 xtb: 6.6.1 (8d0f1dd)
C            3.21245738717181        1.17070704328112        0.08195230757510
N            2.25892231711408        0.10352562017180        0.02235824159978
C            2.57225774324720       -1.24328421580231        0.02930508689820
N            1.50016525796314       -2.11399540237908        0.00128986947643
C            0.41192344941065       -1.16218485993577       -0.00286849531237
C            0.86851441255081        0.17594388169691        0.00614949120016
C            0.08091541592919        1.37160892513124       -0.00855795205074
O            0.46799836767206        2.54697216914320        0.00337364196265
N           -1.32644094974185        1.10860521470371       -0.03389591037280
C           -2.27149475929127        2.21931075819033       -0.04645100589218
C           -1.84689739285873       -0.14080344713470       -0.05270041007215
O           -3.04593669215680       -0.34169699147468       -0.08072319784763
N           -0.96508404912485       -1.25818660363786       -0.03826870469197
C           -1.54179628738417       -2.57501009534387       -0.06697257475276
H            3.70927831809611        1.19581929198179        1.05678692109102
H            3.96837998027606        1.03104435395911       -0.69375448769259
H            2.70757725310479        2.12578481536892       -0.07407258500127
H            3.56432604663567       -1.60717479271681        0.04183445805005
H           -1.71149484722833        3.15281706178657       -0.01878653117029
H           -2.88654614568179        2.18191172231484       -0.94748150700260
H           -2.93627857064662        2.15801810977967        0.81711129700694
H           -1.22661904821652       -3.11932766272814        0.82408136042616
H           -1.18845577706266       -3.10003860983342       -0.95564743789995
H           -2.62435182220345       -2.47601735578096       -0.08981455981309
H            2.16089506036169       -3.41532032856957        0.05278658043318
25
 energy: 36.928615116749 xtb: 6.6.1 (8d0f1dd)
C            3.20956018269998        1.16264387618313        0.08209691984868
N            2.24139962318431        0.10223850737378        0.02173559577796
C            2.52590461320441       -1.23919996012001        0.02538145681984
N            1.47826259951664       -2.11736736190087       -0.00943749075059
C            0.39551799011175       -1.14911781656257       -0.00197123772407
C            0.85492632862807        0.18664729753845        0.00572961233964
C            0.07615306946945        1.38472231510894       -0.00887420407688
O            0.45851834467128        2.55368135346563        0.00500410369498
N           -1.33329897049862        1.12655834961163       -0.03428557561382
C           -2.27645359853125        2.23198283819272       -0.04619116545763
C           -1.85407852695813       -0.12736500110606       -0.05320974715746
O           -3.05142825996777       -0.33017719186415       -0.08149197660723
N           -0.97777388944394       -1.23664670964218       -0.03828512813816
C           -1.54735292164141       -2.56217265213086       -0.06749679705487
H            3.70630618179109        1.18693638782366        1.05572091276315
H            3.96409393282109        1.02268021155957       -0.69402022130756
H            2.71418889369918        2.12482619044786       -0.07295164299460
H            3.52537503796481       -1.60310612883878        0.04011819111824
H           -1.71593458262377        3.16427255814890       -0.01817004543484
H           -2.89005758601523        2.19034044686353       -0.94763082075953
H           -2.93967047495616        2.16584157739995        0.81791398580857
H           -1.22623197758709       -3.10725755114722        0.82088187294070
H           -1.18777693014018       -3.08773376212458       -0.95324266859743
H           -2.62994512205114       -2.47394366433288       -0.09067666208147
H            2.39201071058885       -3.58025550777556        0.07038662879168
25
 energy: 25.489235429646 xtb: 6.6.1 (8d0f1dd)
C            3.20984822126135        1.15215988384025        0.08088740659488
N            2.22361131502350        0.08832654864610        0.02824072719894
C            2.43142220542863       -1.23023721264558        0.01945939800125
N            1.39748650068048       -2.04276961165803       -0.01835087124735
C            0.35699356940032       -1.07435314138164       -0.00981196358400
C            0.85414062250139        0.22662124971643        0.00965435432137
C            0.06665618883665        1.42318137478905       -0.00409774528094
O            0.44616119838636        2.56599040510864        0.00353258493545
N           -1.31775822077668        1.14097867022648       -0.03319511761802
C           -2.27138659234365        2.23522523266980       -0.04567365807817
C           -1.85630527362042       -0.13006502609374       -0.05353648870643
O           -3.05141943821955       -0.31620937395896       -0.08021312629324
N           -0.98793972611220       -1.21206170126461       -0.04324717395054
C           -1.54402529396776       -2.55551753764455       -0.06852209177722
H            3.70317571807918        1.18005290521458        1.05311599557429
H            3.96371846597023        1.01405597210432       -0.69294413028898
H            2.72012365970644        2.12001930376926       -0.07486385102407
H            3.45260112588851       -1.61382681099566        0.03703038076125
H           -1.71750018195325        3.16992024445081       -0.01724470578973
H           -2.88580594229248        2.19021760387607       -0.94599555893738
H           -2.93515211164625        2.16522114105514        0.81731478983032
H           -1.21917175340645       -3.10034295074947        0.81689100512062
H           -1.18262199920576       -3.08181023232447       -0.95087443614687
H           -2.62785641407991       -2.47399829295915       -0.09045086813882
H            2.68321882439754       -3.85175004161898        0.08992904067069
25
 energy: 21.586892783052 xtb: 6.6.1 (8d0f1dd)
C            3.21355809656225        1.15613115777546        0.08106115855732
N            2.23091085372587        0.08608677761790        0.03516476909292
C            2.40438940202817       -1.22927233861757        0.01878411166261
N            1.32794456045660       -1.97107144998098       -0.02008635836566
C            0.33419968868233       -1.01640815671426       -0.01268637177641
C            0.86539643127751        0.25987445436151        0.01189461856280
C            0.05678077704939        1.45215533587578       -0.00532667634748
O            0.44266000264360        2.59273455945357        0.00439150326250
N           -1.30573984835952        1.14083404821789       -0.03341653249924
C           -2.26897888571259        2.23210153387882       -0.04562939823284
C           -1.86189245420171       -0.13741228775798       -0.05365166907361
O           -3.05958309051058       -0.29724115985430       -0.07850441366351
N           -0.99764090873838       -1.20734571088513       -0.04521555474176
C           -1.53750733261174       -2.55786753037580       -0.06807794101935
H            3.70296574737935        1.18158629256767        1.05485504149448
H            3.96644276780940        1.01072252691600       -0.69148758215733
H            2.71730687941690        2.11776670900128       -0.07876148926662
H            3.42568504477558       -1.62912728436387        0.03507992200873
H           -1.72039347155991        3.17062809566877       -0.01793224539375
H           -2.88298775875085        2.18439555889184       -0.94596630318255
H           -2.93210788644021        2.16008896634825        0.81749279532702
H           -1.20886589203225       -3.09710008951549        0.81854850164449
H           -1.17384876128354       -3.07970746820586       -0.95130318933424
H           -2.62165276771012       -2.47835690174466       -0.08892041423135
H            2.79517347404065       -4.05516703638680        0.08672761382014
25
 energy: 20.642007965556 xtb: 6.6.1 (8d0f1dd)
C            3.21457078556040        1.16463431997516        0.08038512831435
N            2.23543019478386        0.09786344223470        0.03737157728430
C            2.40229035915210       -1.23211419494224        0.02051890964287
N            1.27691711586558       -1.92990461194023       -0.01354541402215
C            0.32501768619485       -0.97841826558488       -0.01626868766572
C            0.87110193484636        0.29243200058251        0.01412862914461
C            0.04405422135253        1.47797118620707       -0.00196287057561
O            0.43463384330349        2.62642077828903        0.00358354331447
N           -1.30418626131644        1.14628364421473       -0.03198598130752
C           -2.27333102917946        2.23585173471740       -0.04617938052826
C           -1.86984624559703       -0.13453798575259       -0.05273465213960
O           -3.07055703362244       -0.27453096142115       -0.07677203856281
N           -1.00734421256215       -1.20233784524504       -0.04776954611278
C           -1.52972826223355       -2.55451370500047       -0.06841875103459
H            3.70333979820035        1.18491762184863        1.05545763397538
H            3.96826519185182        1.00914434110160       -0.69035884833617
H            2.71864492949144        2.12269211719834       -0.08202130627872
H            3.40449479550814       -1.64359116041049        0.03381573122789
H           -1.72675048473574        3.17615845588327       -0.01849465559939
H           -2.88392918867838        2.18148712660814       -0.94777458571256
H           -2.93382622315572        2.15773727552096        0.81764154937594
H           -1.19605956525426       -3.09035383014769        0.81847040464033
H           -1.16351426783974       -3.07477000357349       -0.95155042937882
H           -2.61424340379129       -2.48114965901462       -0.08760431783855
H            2.88676998979150       -4.28834321917662        0.07910225432042
25
 energy: 20.772441819740 xtb: 6.6.1 (8d0f1dd)
C            3.21343161232468        1.17066590824689        0.08090099970219
N            2.23284977738631        0.11059428678477        0.03671883339899
C            2.41173404943429       -1.22665196054714        0.02270832923262
N            1.26632629460785       -1.90764543066062       -0.00953674419369
C            0.32609097018212       -0.96117112221602       -0.01592041490658
C            0.87276708889177        0.31068365223284        0.01293366195238
C            0.03865256884455        1.48848416666005       -0.00447843540721
O            0.43208064636930        2.64030629566676        0.00081428498343
N           -1.30428937135254        1.14811401937330       -0.03248026493391
C           -2.27546329721499        2.23744876975588       -0.04593072290376
C           -1.87245390089860       -0.13213510577087       -0.05218913620841
O           -3.07386571228317       -0.26814228466458       -0.07539957422684
N           -1.00897049932806       -1.20046196832330       -0.04624692609574
C           -1.52496470859073       -2.55101289220125       -0.06737817822810
H            3.70386683577788        1.18975956284958        1.05624830609239
H            3.96963613346946        1.01203554941261       -0.68806588523165
H            2.71989562270383        2.12834748004414       -0.08238598789099
H            3.40113748188618       -1.64218957672397        0.03740581519506
H           -1.72700810935721        3.17636287293763       -0.01886053354363
H           -2.88510712802836        2.18140441929718       -0.94745768364933
H           -2.93421255623516        2.15812000177922        0.81848507770648
H           -1.19329148726805       -3.08921492592752        0.81926887227448
H           -1.16078198295459       -3.07306720361833       -0.95087318953242
H           -2.61026547967800       -2.48006867154260       -0.08682158805900
H            2.89441981924748       -4.43153724067261        0.06557498062053
25
 energy: 20.570092170399 xtb: 6.6.1 (8d0f1dd)
C            3.21402550452280        1.17593147544052        0.08007549671194
N            2.22779289524820        0.12612571306887        0.03424204009054
C            2.42555686020844       -1.21411553467097        0.02477760452355
N            1.28070654138520       -1.89726429635694       -0.00158486216690
C            0.33155444808269       -0.95781286481136       -0.01409361787279
C            0.87123770017648        0.32008017565584        0.01209815342457
C            0.03657157531029        1.49238015646508       -0.00366981412418
O            0.42958131058586        2.64685154982714        0.00230603318842
N           -1.30703501467851        1.15006068818913       -0.03190118241696
C           -2.27813137959437        2.23931922935155       -0.04607511635620
C           -1.87256012374997       -0.12795269670159       -0.05235565065941
O           -3.07374614227409       -0.26845954369531       -0.07652008326974
N           -1.00707445212380       -1.19935675084807       -0.04455305641206
C           -1.52147882790024       -2.54758290288203       -0.06735491786092
H            3.70612976739778        1.19204744164113        1.05556269999954
H            3.97089668988569        1.01342924665567       -0.68868621944264
H            2.72550870089236        2.13594457401420       -0.08298328222439
H            3.40630610269070       -1.63324349598176        0.03836570742290
H           -1.72896151248831        3.17761786926261       -0.01855791932579
H           -2.88623370815240        2.18226511060827       -0.94823999678915
H           -2.93668747997943        2.15872239040762        0.81795262082931
H           -1.19094986875543       -3.08833408648398        0.81896821457563
H           -1.15847817856456       -3.07154133953113       -0.95120037899992
H           -2.60781231044525       -2.47998538750050       -0.08695727988543
H            2.85549557025610       -4.53609811895193        0.05741870318736
25
 energy: 20.132815731794 xtb: 6.6.1 (8d0f1dd)
C            3.21617302218337        1.18408382637434        0.08108392249620
N            2.22488558838464        0.14354644859151        0.03187032698919
C            2.44107455931620       -1.19399549859719        0.02701619139541
N            1.31225829199192       -1.88910292114513        0.00152587610893
C            0.33949243151790       -0.96403957776994       -0.01305839800736
C            0.86913908069762        0.32106384952030        0.00886943639563
C            0.03852556008009        1.49022278834350       -0.00677126674001
O            0.42840048062152        2.64592126740645        0.00080746319737
N           -1.30927373156025        1.14977517664615       -0.03265307907173
C           -2.27847519029910        2.23928651605293       -0.04585375744487
C           -1.86895434876604       -0.12531699405473       -0.05207387168679
O           -3.06969933824330       -0.27571183757973       -0.07599534236594
N           -1.00117218374576       -1.20046201270929       -0.04277177094026
C           -1.52023391105315       -2.54625288274511       -0.06656508188669
H            3.70712149606935        1.19655444382754        1.05727323822633
H            3.97241269201740        1.01859482523556       -0.68780068219633
H            2.73052995122251        2.14558951765652       -0.08175882241880
H            3.41811932406060       -1.62080418068288        0.04150998534686
H           -1.72765687197405        3.17657624353541       -0.01899281182398
H           -2.88735500995039        2.18295170285405       -0.94754748085216
H           -2.93613771665450        2.15971883451242        0.81891430199054
H           -1.19205402405322       -3.08967638001528        0.81955830133282
H           -1.16008003564752       -3.07242333093733       -0.95084770601993
H           -2.60701249233487       -2.47791277798244       -0.08605422376924
H            2.77218704405525       -4.60915844416562        0.04734914789214
25
 energy: 19.903798956795 xtb: 6.6.1 (8d0f1dd)
C            3.21884740529052        1.18782631014560        0.08012630210687
N            2.22654297774415        0.14954989113871        0.03159141279432
C            2.44518454769638       -1.18359019500719        0.02704953687508
N            1.33307968779471       -1.89116678424623        0.00343267099498
C            0.34348662679394       -0.97331371072464       -0.01175838031256
C            0.86709658722495        0.31542825687136        0.01002416335810
C            0.04121802674101        1.48693972308089       -0.00368704590265
O            0.42740779618356        2.64273335580329        0.00376069722433
N           -1.31123443997293        1.15056491765280       -0.03164629369149
C           -2.27938696402388        2.23936557256785       -0.04619670596119
C           -1.86591320049308       -0.12354713934730       -0.05229754259619
O           -3.06645933448266       -0.28028988413825       -0.07763818120318
N           -0.99705229976980       -1.20025672485357       -0.04268313668740
C           -1.52005783682300       -2.54638940034780       -0.06731304003907
H            3.70936428541808        1.19740021865215        1.05592977302438
H            3.97214415536265        1.01932396411578       -0.69036166491358
H            2.73370143777926        2.14980643582720       -0.08219579550770
H            3.42292286442004       -1.61600537635426        0.03931916364628
H           -1.72951207038234        3.17735294592049       -0.01835039421544
H           -2.88744111308901        2.18345481701923       -0.94872683621841
H           -2.93869158961555        2.15982821653936        0.81760371652579
H           -1.19166030407200       -3.08947278570315        0.81884503724839
H           -1.15856019209151       -3.07184612082291       -0.95142386520217
H           -2.60657790858278       -2.47783204581505       -0.08737274411916
H            2.72376552288551       -4.61683585580236        0.05100304891896
25
 energy: 19.846392199628 xtb: 6.6.1 (8d0f1dd)
C            3.21907905282380        1.18957668580909        0.08161197240379
N            2.22905052818643        0.14904717835093        0.03219538271406
C            2.44442453272093       -1.18106703584600        0.02640962225449
N            1.33762019248146       -1.89193750073784       -0.00112543837589
C            0.34383188384958       -0.97642529156602       -0.01312795753316
C            0.86677169624399        0.31183537417670        0.00892911247461
C            0.04296037332464        1.48513110240538       -0.00639519719727
O            0.42785336568096        2.64035351126532        0.00101970606096
N           -1.31089027477547        1.14994284730393       -0.03276956762038
C           -2.27815894124675        2.23869885759484       -0.04588371398468
C           -1.86471999843332       -0.12442115005274       -0.05221193978206
O           -3.06531807918403       -0.28202215340605       -0.07613829636434
N           -0.99582003227023       -1.20052728616331       -0.04354490373294
C           -1.52119325534426       -2.54749521014944       -0.06679894310833
H            3.70777007225402        1.19872702347315        1.05786061890058
H            3.97245963397848        1.02134156431128       -0.68823144997262
H            2.73223828334993        2.15034879062798       -0.08119588727435
H            3.42392131155483       -1.61508773489777        0.04013741975877
H           -1.72763961755258        3.17642430355216       -0.01897061525194
H           -2.88777007018243        2.18333423749026       -0.94752924728273
H           -2.93635770242874        2.16001403910143        0.81900120377392
H           -1.19253059882956       -3.08975511006375        0.81947007893796
H           -1.16055911416867       -3.07289611391083       -0.95082619280296
H           -2.60726546301744       -2.47711323685078       -0.08614798392996
H            2.71245688892069       -4.60699908964588        0.05129611308177
25
 energy: 19.840747673829 xtb: 6.6.1 (8d0f1dd)
C            3.21949864523236        1.18932010805712        0.08064015540539
N            2.23000816548004        0.14813469596773        0.03281471510807
C            2.44336537992359       -1.18119315504877        0.02611976201496
N            1.33758090976105       -1.89312030518847       -0.00104322156025
C            0.34353566660106       -0.97698166230058       -0.01250191752210
C            0.86628635255217        0.31104913864350        0.01072944473962
C            0.04320215766480        1.48519284927187       -0.00387254228698
O            0.42760170583623        2.64039312168343        0.00320063608767
N           -1.31124488940149        1.15040973592166       -0.03195893407818
C           -2.27864313519691        2.23880947634280       -0.04613076118558
C           -1.86480830685261       -0.12426332246875       -0.05227575060352
O           -3.06541457363278       -0.28160499851827       -0.07710230746596
N           -0.99590485764044       -1.19991266210110       -0.04378792498073
C           -1.52115365022128       -2.54758333724454       -0.06740381684771
H            3.70916456996952        1.19838625267645        1.05634374756103
H            3.97199333940392        1.02026116303397       -0.68995760904852
H            2.73245985567111        2.14990497888219       -0.08204111774641
H            3.42321710696564       -1.61545752513498        0.03880309795523
H           -1.72878095325318        3.17692937830359       -0.01848876951916
H           -2.88732094118432        2.18338800262387       -0.94842982650583
H           -2.93794490606194        2.15983717597203        0.81793250712307
H           -1.19228208547731       -3.08941568924406        0.81890929270713
H           -1.15932898732282       -3.07222881386324       -0.95131089825445
H           -2.60711307571507       -2.47750367137751       -0.08727015598248
H            2.71424117483486       -4.60372233271790        0.05511609103299
25
 energy: 19.836224175158 xtb: 6.6.1 (8d0f1dd)
C            3.21924334944684        1.18944764406451        0.08138133359082
N            2.23035939811576        0.14772396419243        0.03301191986260
C            2.44308290271179       -1.18130977643969        0.02553496128740
N            1.33673499339862       -1.89281552761965       -0.00292616149155
C            0.34330242088787       -0.97644840957549       -0.01311536081594
C            0.86618976328288        0.31124703792750        0.01029294119821
C            0.04336512791788        1.48537832906429       -0.00519292606338
O            0.42766976970924        2.64056200904322        0.00182457632685
N           -1.31108847059802        1.15029239601044       -0.03253822250072
C           -2.27836619791201        2.23872394497784       -0.04600301101515
C           -1.86489709773692       -0.12458201145465       -0.05235609321427
O           -3.06554141291021       -0.28141957688313       -0.07645004832850
N           -0.99601583030290       -1.19986300141939       -0.04420769185112
C           -1.52126139119538       -2.54777875227739       -0.06709614730346
H            3.70843932173903        1.19853688040338        1.05734461277109
H            3.97231369149033        1.02076368232641       -0.68873537324271
H            2.73200520398651        2.14980334442194       -0.08146154287106
H            3.42300096032358       -1.61563494374606        0.03880500443804
H           -1.72829119534758        3.17673570312662       -0.01877282210539
H           -2.88768637598147        2.18339062936621       -0.94787803687417
H           -2.93703791145955        2.15991116489835        0.81855981873288
H           -1.19214370153434       -3.08928291041387        0.81928270905379
H           -1.15983551237783       -3.07258116522048       -0.95096676087042
H           -2.60717889345907       -2.47742950578878       -0.08658481815843
H            2.71585175574117       -4.60434254681251        0.05528103559190
