25
 energy: 0.000000000000 xtb: 6.6.1 (8d0f1dd)
C            3.23720163006194        1.16630919979326        0.08434469647475
N            2.29877817382611        0.07527477071623        0.03981603040599
C            2.58028210190900       -1.21425402444508        0.03006176031096
N            1.43813958087363       -1.93419271955128        0.00098261760884
C            0.39035688448383       -1.05887472636071       -0.00790371836672
C            0.93510056364412        0.21347819449412        0.01709077491437
C            0.09450143893243        1.40504303904423       -0.00410947031874
O            0.49712751527797        2.54126714362870       -0.00342325688240
N           -1.25076640035757        1.06271879480407       -0.03085478223738
C           -2.21907211982101        2.15522099834493       -0.05001256985998
C           -1.81739487048744       -0.20012725993278       -0.04692818574614
O           -2.99983886758376       -0.37846417018721       -0.07008878229737
N           -0.92618586207120       -1.30210215599479       -0.03682761578324
C           -1.46982264913417       -2.64643102187190       -0.06029820460571
H            3.71247264356769        1.21471455160235        1.06488849150277
H            4.00791497605742        1.03430808813993       -0.67357694370751
H            2.69910007168542        2.09770118228144       -0.09130154882931
H            3.56654120610678       -1.63682992603973        0.04233140067262
H           -1.67107961066214        3.09322851271934       -0.02552706933167
H           -2.82428953597071        2.09428624779827       -0.95318082946668
H           -2.87644029173232        2.07745725625962        0.81450067533302
H           -1.17061996399332       -3.19584890659852        0.83242232437030
H           -1.14560257411436       -3.17511610292205       -0.95688275822323
H           -2.55549792440841       -2.55659984320617       -0.07459039797972
H            1.38130855184625       -2.94313852034425       -0.01389874181052
25
 energy: -3.808773750766 xtb: 6.6.1 (8d0f1dd)
C            3.24819944593083        1.17835551115081        0.08046720471498
N            2.30713782804694        0.09869658770097        0.03921535146609
C            2.60171782478724       -1.22667549115265        0.03243209064882
N            1.43025955776312       -1.93717801668378        0.01257158352837
C            0.38821538000680       -1.05762507913615       -0.00142631224153
C            0.92687796747823        0.21938099080561        0.02003295989262
C            0.09634975502772        1.38785261141649        0.00514907464068
O            0.50352414884127        2.55143447745112        0.01448304094096
N           -1.27354018703098        1.04246526792492       -0.04520118584676
C           -2.20955055960823        2.15907383538505       -0.02699225742657
C           -1.87206212519704       -0.21101463509158       -0.14340137321594
O           -3.07539376516175       -0.37631656500393       -0.21935339354523
N           -0.95114800836241       -1.30355914973268       -0.04376388113020
C           -1.46476375100754       -2.65358532039146       -0.03472261138399
H            3.73088286239420        1.22714180948671        1.06037372779677
H            4.01605629779512        1.03787426004788       -0.68247774212694
H            2.70744400631111        2.10543836037320       -0.09812369923209
H            3.58387269873132       -1.64646029959279        0.03650589726379
H           -1.64608277031412        3.09086337637963        0.01290068242871
H           -2.81581946351635        2.12193686917256       -0.92936525412462
H           -2.85966877632308        2.07715842465735        0.84316404868494
H           -1.12406279958808       -3.20457216635249        0.84563636697849
H           -1.16274653601599       -3.18075065018414       -0.94024949365804
H           -2.54871313552842       -2.56934332579107       -0.00710389495338
H            1.37522877247633       -2.94156308066761       -0.00371703395263
25
 energy: 4.458425949586 xtb: 6.6.1 (8d0f1dd)
C            3.26249176511042        1.18905871213502        0.07292862161935
N            2.31187443239020        0.12524429760709        0.03855283588758
C            2.61972161036894       -1.23690318003948        0.03849431480711
N            1.41676249784611       -1.93357311029458        0.02990769502189
C            0.38026144871801       -1.05510676134517        0.01311370391844
C            0.91355027011666        0.22564081131079        0.02783734126774
C            0.09632435045978        1.35886908948500        0.01895793216796
O            0.49979769377648        2.54486229091292        0.04200275970651
N           -1.30862529056881        1.01358418902388       -0.06454735749411
C           -2.19367826457071        2.16927870735581        0.01184289238301
C           -1.95165719020241       -0.22799498292200       -0.29847722533099
O           -3.16451925122214       -0.37151335233814       -0.50457824969117
N           -0.98674538765619       -1.30199798628616       -0.05145340708374
C           -1.45361121975256       -2.66436938856853        0.00865658175558
H            3.75881052519851        1.24368377779977        1.04926804124064
H            4.02774185724262        1.04005367845761       -0.69540515328441
H            2.72589588431351        2.11657336999441       -0.10874474116060
H            3.59913013960075       -1.64894363417836        0.02874278159355
H           -1.60535593579914        3.08922195752999        0.07695109505622
H           -2.80937615334208        2.17746476492380       -0.88397174633776
H           -2.82749347783063        2.08167305601142        0.89474571479515
H           -1.03164985049139       -3.21620080920826        0.86302303981515
H           -1.20699979431436       -3.19449195612804       -0.91546222506667
H           -2.53621646105408       -2.59945730555119        0.12238371340788
H            1.37578046959878       -2.93562763351567        0.01226493715301
25
 energy: 18.417705429723 xtb: 6.6.1 (8d0f1dd)
C            3.27210596707095        1.19271521823097        0.07046128397725
N            2.31009780656153        0.13855793010185        0.04220503609386
C            2.62225406803877       -1.24014001373428        0.05096339239876
N            1.40664515064083       -1.92915335944042        0.04119076936621
C            0.36873098191539       -1.05523559769638        0.01018187600993
C            0.90353656727559        0.22637839387499        0.02884689896985
C            0.08688524680048        1.34270530259449        0.01668746093429
O            0.48450374822647        2.53612687809714        0.06360874419596
N           -1.34204765831246        0.99382733537151       -0.09685405946758
C           -2.18238299005408        2.18108913057699        0.04970182880299
C           -2.01169174775331       -0.24031908524621       -0.45602711837414
O           -3.21250814387574       -0.36726456511801       -0.76006079521055
N           -1.01532687874567       -1.29937513023452       -0.07815980329690
C           -1.44278406356136       -2.67455007760169        0.04898997880450
H            3.77844184554795        1.25401814809620        1.04308937621633
H            4.03701015773988        1.03616434993552       -0.69903473067903
H            2.74745388769324        2.12655490531743       -0.11533357450106
H            3.60437062438125       -1.64407980939619        0.03134464821557
H           -1.56681829040497        3.08517564473702        0.14136309575070
H           -2.81247227407767        2.24504004285424       -0.83434385263788
H           -2.79263722724062        2.08453990519031        0.94978319792450
H           -0.92823227030272       -3.21497675924120        0.87312306041976
H           -1.26843375596801       -3.21617604157997       -0.89089034263854
H           -2.51992297893294       -2.64023600868447        0.26720484308377
H            1.38543689527351       -2.93235813483340        0.02899268178882
25
 energy: 26.394464028720 xtb: 6.6.1 (8d0f1dd)
C            3.27509973005107        1.19026228556380        0.07659235799547
N            2.30332779347150        0.13986797687220        0.05038102588499
C            2.61299738606999       -1.23595064652935        0.06776626988178
N            1.40219328017241       -1.92537433925085        0.03987581199344
C            0.35676856833702       -1.05746154658345       -0.01280612953317
C            0.89778793907227        0.22243608850357        0.02009139487946
C            0.07284656023200        1.33923648952840       -0.00527938151290
O            0.46837475375839        2.52548514206742        0.06507953555727
N           -1.36730945174624        0.98509239059236       -0.13721948117858
C           -2.17715577745251        2.18797519723487        0.07668472177991
C           -2.04554393202977       -0.24552756576723       -0.56873658169172
O           -3.21845587204068       -0.36047994554206       -0.92056703958469
N           -1.03258364890209       -1.29739025247113       -0.11877045578681
C           -1.43393990821998       -2.67973513904011        0.07648068527962
H            3.78379925162676        1.25513057772182        1.04763263477645
H            4.04215089706184        1.02702533358370       -0.68979825218636
H            2.76521423244260        2.13236832858078       -0.11398139898688
H            3.60088349711050       -1.63242242162586        0.04441682773914
H           -1.54063127501211        3.07694115314611        0.18793181059238
H           -2.82541323737471        2.30579797447996       -0.78814466533997
H           -2.75914025510963        2.07974609156764        0.99583784164293
H           -0.84325583348637       -3.19968087376410        0.86766048085445
H           -1.33413784859616       -3.24122638231279       -0.86698707010990
H           -2.49353328655429       -2.67185610197166        0.39260971559974
H            1.40187110505448       -2.93123121241212        0.04028323760132
25
 energy: 26.456069816532 xtb: 6.6.1 (8d0f1dd)
C            3.27127438353163        1.18414516367456        0.08414819095271
N            2.29321842649754        0.13323918971902        0.05964092031222
C            2.59632862387949       -1.22515671039514        0.08321940903605
N            1.40223339307346       -1.92220518929074        0.02994733805920
C            0.34665241287119       -1.06053340557949       -0.03454118496257
C            0.89470925972460        0.21664672792504        0.01114164488872
C            0.06161912253094        1.34312700776390       -0.02730596561247
O            0.45937260737013        2.51326128387855        0.05137141887133
N           -1.37798957193332        0.98613838879258       -0.16327031208970
C           -2.17617397681773        2.18549312729839        0.09019038120825
C           -2.05234084487531       -0.24420082797824       -0.60482924295465
O           -3.19340851383228       -0.35107910449050       -1.02426564237852
N           -1.03653907089696       -1.29812942531483       -0.14721894183438
C           -1.42944566859563       -2.67765264559554        0.09129776670448
H            3.77747111752723        1.24853821678038        1.05524189435518
H            4.04012080399323        1.01526567711309       -0.67842049153075
H            2.77350160513766        2.13272103805789       -0.10971655766613
H            3.59029737639994       -1.61619932668773        0.05490225148768
H           -1.53038698686806        3.06428384668711        0.20767429005555
H           -2.84187246823047        2.34113570076138       -0.75018720946575
H           -2.73339430230981        2.06677759911502        1.02397371204313
H           -0.79446639762289       -3.18014696132962        0.84583150303608
H           -1.39002628359187       -3.25753907135982       -0.84226044692798
H           -2.45825245585757       -2.67866158210657        0.47659857599674
H            1.41971207683114       -2.93024011526680        0.04387059456293
25
 energy: 22.935278415223 xtb: 6.6.1 (8d0f1dd)
C            3.26409683867133        1.17916049881019        0.09140233412625
N            2.28474137632305        0.12735471118896        0.06599628257271
C            2.58304074832308       -1.21567532265730        0.09688741129306
N            1.40236921899044       -1.92104306113064        0.01851556962910
C            0.34136404991811       -1.06179723567964       -0.05182959569278
C            0.89158951562384        0.21397509960216       -0.00083113431681
C            0.05833613045623        1.34645070838472       -0.04458273742192
O            0.45845604647520        2.50828189091948        0.04485129661845
N           -1.37454012945729        0.99128926263281       -0.17853664482158
C           -2.17709133970623        2.17893242909963        0.09224470541045
C           -2.03921831710289       -0.23976506302426       -0.60532319356092
O           -3.15450383575927       -0.34357757759114       -1.05842893707326
N           -1.03147722219002       -1.30161734324811       -0.16722867337933
C           -1.43128946066756       -2.67332133326392        0.09572520717095
H            3.76380887239225        1.24072325659981        1.06507850874777
H            4.03503103925717        1.00539051115075       -0.66712165734145
H            2.77060561505457        2.12863784551847       -0.10567861830759
H            3.57886500573706       -1.60584640319097        0.06386922889363
H           -1.53168140502208        3.05600849213448        0.20754697376663
H           -2.85507250790923        2.35051371903464       -0.73041482195846
H           -2.72210606216702        2.05122503173701        1.03104556189169
H           -0.75671119361277       -3.16776644811185        0.81662972032397
H           -1.43892682551855       -3.26012915920758       -0.83162095990948
H           -2.43452582988687       -2.66958286939080        0.53587854927714
H            1.42705433971376       -2.92879303814501        0.04295952020914
25
 energy: 21.402660310122 xtb: 6.6.1 (8d0f1dd)
C            3.25981630014320        1.17826592338436        0.09217111476758
N            2.28163089677674        0.12655190355384        0.06828194251057
C            2.57921302879288       -1.21241206189519        0.10706118438642
N            1.40232990638057       -1.92142228758071        0.01393507012919
C            0.34104794357338       -1.06161505854668       -0.05402325967804
C            0.88929143921559        0.21469202977191       -0.00598218382934
C            0.05890964221681        1.34699078610488       -0.04451345510441
O            0.45896462554469        2.51016643949951        0.04867899960298
N           -1.36835819319366        0.99423398751586       -0.18063109616624
C           -2.17800799056130        2.17393864682991        0.09299051462969
C           -2.02628867236797       -0.23697271984209       -0.59920542818574
O           -3.13094703886076       -0.34082939390992       -1.10038421385461
N           -1.02581690326771       -1.30499217521173       -0.17435197926169
C           -1.43384492147569       -2.67062258709504        0.09988214608758
H            3.75623967204757        1.23869753802573        1.06746151768329
H            4.03118144712667        1.00129718302634       -0.66489232462258
H            2.76528026054785        2.12601855892716       -0.10664543198575
H            3.57406008731898       -1.60419689086852        0.06384923417643
H           -1.53418631196465        3.05293711035732        0.20606693683403
H           -2.86349043047627        2.34838727271013       -0.72201689992440
H           -2.71815487131365        2.04064097552530        1.03331955376578
H           -0.74052725706480       -3.16613551157573        0.79601856048632
H           -1.47455877546298       -3.25943371400023       -0.82370801298838
H           -2.41838368224946       -2.65713589703500        0.57167892076958
H            1.42681446651020       -2.92802145549953        0.04199248591909
25
 energy: 19.351757399071 xtb: 6.6.1 (8d0f1dd)
C            3.25695823567835        1.17875514830938        0.09403189538571
N            2.28059910129317        0.12693679548058        0.06972352891769
C            2.57894513775777       -1.21197406797502        0.11817729969267
N            1.40198292807227       -1.92218260909332        0.01168902302421
C            0.34242642593880       -1.06078649276560       -0.05851754930381
C            0.88778398713546        0.21621514963870       -0.01316129272624
C            0.05940711454277        1.34620182728849       -0.04553637019254
O            0.45823803149351        2.51294820760081        0.05534375301467
N           -1.36221629836979        0.99669118091845       -0.18690972382710
C           -2.17961922092094        2.17102131131629        0.09206952269706
C           -2.01312538593237       -0.23458629189616       -0.60764014279292
O           -3.10756234917519       -0.34059159918750       -1.09917858684078
N           -1.02023752281409       -1.30814310934507       -0.18750865081055
C           -1.43746161691257       -2.66889273486245        0.10172068528080
H            3.75051175244336        1.23936491717197        1.07086956125133
H            4.02966289860917        1.00073815516023       -0.66118550278588
H            2.76007311648740        2.12448124375553       -0.10624641757245
H            3.57175176428322       -1.60670095379689        0.06323773655700
H           -1.53801614227006        3.05321132447840        0.20443523269215
H           -2.86923384964098        2.34308011726765       -0.72066140713586
H           -2.71775985559944        2.03169642081653        1.03238302849968
H           -0.72995089057472       -3.16771800134845        0.77696820683320
H           -1.50693351720850       -3.25799315859339       -0.81834884626097
H           -2.40645384596266       -2.64497067632430        0.59846606196783
H            1.42244466958231       -2.92777350184295        0.04281285058248
25
 energy: 19.276122891326 xtb: 6.6.1 (8d0f1dd)
C            3.25812568190155        1.18003117331462        0.09365444452366
N            2.28266003339402        0.12794841208758        0.07020097047750
C            2.58224822855971       -1.21444059809833        0.12275786693072
N            1.40210302577824       -1.92254276670633        0.01439065966908
C            0.34432080829012       -1.06039633589479       -0.05526656189138
C            0.88876399418770        0.21690082588231       -0.01085132856483
C            0.05941853551401        1.34500280707981       -0.03859241727584
O            0.45716604141143        2.51358925514981        0.05813991043106
N           -1.36116689703268        0.99643831554942       -0.18329834682725
C           -2.18061186255332        2.17086227172069        0.09054573332270
C           -2.01092163254558       -0.23425688880733       -0.60775997691321
O           -3.10715653789501       -0.34167635458296       -1.10179650919771
N           -1.01947132518741       -1.30846997013507       -0.18975752563694
C           -1.43964159192403       -2.66808139875157        0.10053432783425
H            3.75319854802195        1.24224186351051        1.06982490732739
H            4.03056687250785        1.00364207583980       -0.66228809738330
H            2.75952170364917        2.12525576036688       -0.10601637984695
H            3.57378856745709       -1.61046624253976        0.05643006009074
H           -1.54068308457100        3.05464876080576        0.20144106540046
H           -2.86768364116064        2.33503603767427       -0.72568929940300
H           -2.72027077609021        2.03277000770724        1.02993441788516
H           -0.72562833452837       -3.17293063053733        0.76780626115937
H           -1.52000332180406       -3.25278245627483       -0.82085586395176
H           -2.40542007235333       -2.64103357629591        0.60897359899224
H            1.41899170490909       -2.92826174589259        0.04457197899521
25
 energy: 18.975363988689 xtb: 6.6.1 (8d0f1dd)
C            3.26038842867864        1.18214814523886        0.09290893584021
N            2.28648553889222        0.12890108842433        0.07184751146513
C            2.58788611571790       -1.21796862132481        0.13171590972409
N            1.40344684917732       -1.92274175600101        0.02015649345148
C            0.34796940616871       -1.06020896808681       -0.04842878229758
C            0.89159627883784        0.21718038243270       -0.00568693497210
C            0.05887887314968        1.34315515763728       -0.02874013327946
O            0.45462555134381        2.51345722160940        0.06214372497373
N           -1.35961177496286        0.99517462000273       -0.17772421679806
C           -2.18246563248227        2.17082467009927        0.08781851516426
C           -2.00688200166160       -0.23442738189205       -0.60628812840068
O           -3.10775131828412       -0.34410429067131       -1.09763701295635
N           -1.01740121602486       -1.30898665254770       -0.19241142016200
C           -1.44250201509063       -2.66699010236871        0.09857885032065
H            3.75910268345882        1.24724709343395        1.06727665035172
H            4.03167910399100        1.00889727220667       -0.66519244255934
H            2.75917774267881        2.12687286285207       -0.10544971383516
H            3.57740888241035       -1.61520511949710        0.03971376538924
H           -1.54522112006233        3.05685079443826        0.19642893477978
H           -2.86651964241773        2.32328676817768       -0.73512387125141
H           -2.72432014239672        2.03630464822862        1.02653468297925
H           -0.73278977304966       -3.18066901584080        0.75620849158737
H           -1.53568740388948       -3.24660198959609       -0.82023089510253
H           -2.39990063022306       -2.63431923604269        0.61081940980970
H            1.41462188397651       -2.92904898874083        0.04779557192540
25
 energy: 18.783477429381 xtb: 6.6.1 (8d0f1dd)
C            3.26077578497054        1.18249741119542        0.09514433299470
N            2.28725195959390        0.12885081436233        0.07437219438188
C            2.58909757351942       -1.21835815715260        0.13919635865426
N            1.40422720064017       -1.92255583794844        0.02105018813121
C            0.34888286908926       -1.06039609393650       -0.04945451566763
C            0.89275805861231        0.21670847503623       -0.00491880298315
C            0.05854442176166        1.34256306972421       -0.02889444066285
O            0.45404528111055        2.51252448947645        0.06302619936024
N           -1.35928956858909        0.99418537426530       -0.17747821811201
C           -2.18280881485500        2.17057702640038        0.08572372443020
C           -2.00579419392309       -0.23471750089184       -0.60656993296169
O           -3.10791297785604       -0.34417687379757       -1.09454725932472
N           -1.01646380213572       -1.30907662789138       -0.19713014334575
C           -1.44344276398590       -2.66639732370147        0.09694303921142
H            3.76007854370597        1.24803610052043        1.06912016536979
H            4.03191679787426        1.00973920563942       -0.66347187015831
H            2.75933066733587        2.12719931227910       -0.10332312221526
H            3.57767591316066       -1.61478553331252        0.03186251555187
H           -1.54654675365579        3.05716270917085        0.19277651888842
H           -2.86667213153186        2.32007826131440       -0.73873795719765
H           -2.72490184810345        2.03797933061225        1.02463961210419
H           -0.72266139962723       -3.18336120223168        0.74607090189072
H           -1.55353020352641       -3.24383924835475       -0.82454089861787
H           -2.39688196740828       -2.63228749295238        0.62734557740567
H            1.41453602175957       -2.92912108565378        0.04882972901965
25
 energy: 18.727278634238 xtb: 6.6.1 (8d0f1dd)
C            3.26031151096675        1.18208759667796        0.09659098067904
N            2.28650377158317        0.12841760682445        0.07626751653243
C            2.58832168734234       -1.21759941739967        0.14524975570547
N            1.40457928332447       -1.92238670307626        0.02077796793288
C            0.34858922001244       -1.06075187527279       -0.05115275365378
C            0.89303527455885        0.21604222345824       -0.00507054770869
C            0.05841488280552        1.34284927680742       -0.03156228472370
O            0.45440988042852        2.51154059259878        0.06303895960647
N           -1.35940797658972        0.99357138887930       -0.17779504732169
C           -2.18239132775625        2.17064889830469        0.08474236878350
C           -2.00609219817530       -0.23518614195449       -0.60647113154432
O           -3.10966819389730       -0.34370873948688       -1.09058364834071
N           -1.01609380107597       -1.30898769775478       -0.19879443951781
C           -1.44325557489941       -2.66621909960627        0.09644455755954
H            3.75965421907707        1.24710989981723        1.07038618932394
H            4.03122354227788        1.00855905692714       -0.66225678503310
H            2.75962027994135        2.12701473588929       -0.10221965710729
H            3.57633124532349       -1.61221853918679        0.02540657153138
H           -1.54611854752898        3.05701567056691        0.19103716561360
H           -2.86630146707470        2.32016095540314       -0.73939441429268
H           -2.72457970637674        2.03897719919468        1.02376295302825
H           -0.71948639933724       -3.18358028070406        0.74228354980804
H           -1.55760012507348       -3.24256406707665       -0.82375175842898
H           -2.39373610284207       -2.63277292598526        0.63131492401826
H            1.41595129092160       -2.92899101167345        0.04878290369728
25
 energy: 18.668152540995 xtb: 6.6.1 (8d0f1dd)
C            3.25932341674668        1.18155245217972        0.09954534842047
N            2.28492826359438        0.12809610637953        0.08047217526077
C            2.58740232290927       -1.21625840788380        0.16347620442822
N            1.40539228446048       -1.92224129233891        0.02068771676540
C            0.34867019169276       -1.06129491690396       -0.05504961358936
C            0.89365896077669        0.21497729450983       -0.00596875144008
C            0.05850233845679        1.34346387428969       -0.03615395185842
O            0.45531804019867        2.50999406216537        0.06299467320317
N           -1.35919588969713        0.99217968470324       -0.17801955145948
C           -2.18147523379249        2.17062801997121        0.08227690924374
C           -2.00636927178966       -0.23667631356100       -0.60683136907438
O           -3.11453083745238       -0.34353016151062       -1.08154900545479
N           -1.01441528984474       -1.30906498843902       -0.20239788039200
C           -1.44204109604639       -2.66610563020126        0.09538898825706
H            3.75864004319318        1.24573847602754        1.07304286640123
H            4.02983485867365        1.00601512486757       -0.65952185861123
H            2.76007769912051        2.12675761179464       -0.10022061285107
H            3.57360671446699       -1.60650630918250        0.00672671306805
H           -1.54508305486787        3.05676937005419        0.18798472605758
H           -2.86547463760683        2.32040823525182       -0.74167927608754
H           -2.72418695972446        2.04037043242855        1.02132461709223
H           -0.71539568868111       -3.18482872682008        0.73329592985191
H           -1.56922373047558       -3.24136732849361       -0.82249942715395
H           -2.38454224676049       -2.63130213184515        0.64021185891125
H            1.41879347038537       -2.92874593527111        0.04949646715852
25
 energy: 18.634627059802 xtb: 6.6.1 (8d0f1dd)
C            3.25899245054572        1.18128918542184        0.10002180718857
N            2.28430792874073        0.12813137251241        0.08104870383937
C            2.58724009816557       -1.21628700217369        0.17088232658639
N            1.40503921984029       -1.92248634981972        0.02086033352327
C            0.34868570345353       -1.06125191798570       -0.05673059222780
C            0.89357570503127        0.21488413522855       -0.00746421051547
C            0.05869905252150        1.34369233375349       -0.03714624780493
O            0.45563347604462        2.51005120171806        0.06197646770857
N           -1.35889317084680        0.99232149031281       -0.17842977052477
C           -2.18124962813690        2.17060086319111        0.08184116822616
C           -2.00649008079896       -0.23699853497650       -0.60663727422577
O           -3.11615013323127       -0.34364686566247       -1.07865184164443
N           -1.01401436271320       -1.30916334287828       -0.20281881326165
C           -1.44177544495120       -2.66609280780191        0.09510445542829
H            3.75796188565828        1.24548703613690        1.07367536187448
H            4.02969027730382        1.00497319281864       -0.65860752402773
H            2.76024174649370        2.12656208161109       -0.10025317439164
H            3.57200947624628       -1.60518101690625        0.00064584255648
H           -1.54470843144473        3.05668511703374        0.18825617743625
H           -2.86505192415437        2.32120368477511       -0.74196957374423
H           -2.72431930024385        2.03985334002191        1.02059855125189
H           -0.71362234269066       -3.18554626497234        0.73085156718225
H           -1.56983259327235       -3.24045514492772       -0.82200376720245
H           -2.38255020995222       -2.63081212508332        0.64129278520521
H            1.41879527032745       -2.92878505917586        0.05069113771102
25
 energy: 18.581749854660 xtb: 6.6.1 (8d0f1dd)
C            3.25862676870972        1.18092965475449        0.10046533125153
N            2.28350730117084        0.12834200472497        0.08124686566764
C            2.58734488620022       -1.21656030393098        0.18369784780574
N            1.40413277611401       -1.92290741370873        0.02186736095687
C            0.34896941978442       -1.06086306229846       -0.05982751338102
C            0.89354318942597        0.21500769168466       -0.01112097845429
C            0.05909212065050        1.34406005715095       -0.03879813611118
O            0.45600043085542        2.51054775930480        0.05927319232357
N           -1.35823897681191        0.99327786256164       -0.18016901286963
C           -2.18097445327148        2.17041367339854        0.08201854273183
C           -2.00675269729942       -0.23739323077653       -0.60655856619667
O           -3.11819568903169       -0.34427344804086       -1.07545323785909
N           -1.01331091227367       -1.30921753846456       -0.20309640519519
C           -1.44086087447497       -2.66619647013374        0.09466613055588
H            3.75667621798658        1.24535540211488        1.07462200135773
H            4.02992846412277        1.00340579121326       -0.65707448653228
H            2.76066352963285        2.12630812411372       -0.10079076866781
H            3.56905973893256       -1.60350595232405       -0.00966470007032
H           -1.54429621192184        3.05635322885873        0.19057348806359
H           -2.86424330521065        2.32354939816488       -0.74123972789073
H           -2.72467334070133        2.03757997574203        1.02004175677843
H           -0.71261407816984       -3.18557194554982        0.72919055468748
H           -1.56869886005096       -3.24091342986970       -0.82240401333190
H           -2.38070327443238       -2.62991774572438        0.64150714003272
H            1.41823249800055       -2.92878148079386        0.05406123049444
25
 energy: 18.571913898226 xtb: 6.6.1 (8d0f1dd)
C            3.25864199776607        1.18078789561225        0.10026186316852
N            2.28341504857468        0.12835535170144        0.08077924490501
C            2.58758799470364       -1.21693723510770        0.18831921794964
N            1.40335977510243       -1.92305323757006        0.02344944159796
C            0.34904109249031       -1.06056829401706       -0.06049588810765
C            0.89368646334502        0.21511189462859       -0.01303729463441
C            0.05911337379468        1.34404709776276       -0.03953664564060
O            0.45589434114679        2.51075320304791        0.05761288860367
N           -1.35792883055203        0.99425325258787       -0.18181611100758
C           -2.18090433614649        2.17034556236416        0.08280763856938
C           -2.00710608689164       -0.23732295659919       -0.60655030762634
O           -3.11841156072806       -0.34466141196367       -1.07571994323951
N           -1.01347971374820       -1.30902172808773       -0.20244732939213
C           -1.44061091514513       -2.66620124368599        0.09461905568367
H            3.75635262660898        1.24549172842470        1.07463984410648
H            4.03030565369480        1.00306003121222       -0.65680607394301
H            2.76094267146587        2.12624993530711       -0.10137077675564
H            3.56764428849675       -1.60356195834939       -0.01429692992025
H           -1.54422373511198        3.05613365102311        0.19292471295176
H           -2.86407460452665        2.32539401548480       -0.74005999508742
H           -2.72471895634133        2.03578264609410        1.02048841099232
H           -0.71299804100057       -3.18465476330352        0.73118710463044
H           -1.56422346020029       -3.24150688338930       -0.82302907594914
H           -2.38234162033819       -2.63046603622609        0.63837535792818
H            1.41725120147683       -2.92878191477947        0.05673548636400
25
 energy: 18.541964340686 xtb: 6.6.1 (8d0f1dd)
C            3.25872552612057        1.18081401599668        0.10001702158228
N            2.28360649235262        0.12826391578752        0.08053427433247
C            2.58802888653870       -1.21723475228084        0.19208424447679
N            1.40274810503082       -1.92298571252731        0.02594500408399
C            0.34915790511500       -1.06032601553292       -0.06009731043887
C            0.89418209320975        0.21510267563942       -0.01421935386984
C            0.05886132978202        1.34383595277634       -0.04024048676127
O            0.45556314317283        2.51054913691302        0.05699411954659
N           -1.35750446512780        0.99527432423337       -0.18360724808098
C           -2.18079646381984        2.17026700967838        0.08376108270679
C           -2.00720001002623       -0.23719676614430       -0.60678231482138
O           -3.11753536409208       -0.34506785782874       -1.07755453456389
N           -1.01376557549386       -1.30861657908813       -0.20187997770519
C           -1.44046114809796       -2.66609124634149        0.09452717869198
H            3.75652719842068        1.24577779076606        1.07434734731387
H            4.03054002250401        1.00324691221257       -0.65702799179058
H            2.76107751514037        2.12632866855178       -0.10178417080107
H            3.56649494327152       -1.60392841706056       -0.02018519990343
H           -1.54443179285538        3.05601624142393        0.19504600537934
H           -2.86405655597732        2.32657289786762       -0.73875570449893
H           -2.72450957503594        2.03404310845128        1.02122645846852
H           -0.71472539656906       -3.18296181743649        0.73469621681566
H           -1.55921601649080       -3.24260480232482       -0.82403074285516
H           -2.38524163791658       -2.63131858851933        0.63438275559622
H            1.41614550878026       -2.92873149304114        0.05963722324341
25
 energy: 18.482451647218 xtb: 6.6.1 (8d0f1dd)
C            3.25865023156933        1.18098802706725        0.09980052701100
N            2.28381876614736        0.12808454505937        0.08066736224226
C            2.58847761791743       -1.21729962476916        0.19445600301293
N            1.40261738242494       -1.92280008464079        0.02803162198758
C            0.34920409165390       -1.06032232163655       -0.05885339810575
C            0.89479026661597        0.21485898158192       -0.01405214149048
C            0.05838938344273        1.34351230185485       -0.04042854233448
O            0.45527813375134        2.50980593712482        0.05841782136548
N           -1.35694442574209        0.99569962693456       -0.18427528649599
C           -2.18060719485670        2.17026355095991        0.08417090819297
C           -2.00671278322269       -0.23724248945347       -0.60709663146370
O           -3.11584167060642       -0.34518505892532       -1.07985511299076
N           -1.01396313013949       -1.30816389635924       -0.20161890629662
C           -1.44058851716348       -2.66584535068334        0.09454747013715
H            3.75710350720676        1.24593206333043        1.07372057970600
H            4.03021204905907        1.00381472483422       -0.65781701787002
H            2.76081359381542        2.12648722666840       -0.10178108739722
H            3.56560060075640       -1.60406646819654       -0.02544249333319
H           -1.54478020450807        3.05624124369803        0.19532994023706
H           -2.86440614458084        2.32605548274959       -0.73824172516509
H           -2.72387084912141        2.03357703238435        1.02184053216311
H           -0.71652366693755       -3.18169386262461        0.73799907150830
H           -1.55603786827330       -3.24303272449881       -0.82450452704234
H           -2.38788556511075       -2.63192054413378        0.63081283211075
H            1.41542106383840       -2.92871971615425        0.06120609645841
25
 energy: 18.456556047406 xtb: 6.6.1 (8d0f1dd)
C            3.25844233375495        1.18105775739361        0.09972625516136
N            2.28367873149325        0.12805220238356        0.08072896921202
C            2.58848149427297       -1.21710845223649        0.19414649476496
N            1.40291643472916       -1.92278749693674        0.02756610905737
C            0.34914326777502       -1.06045882536905       -0.05853110373452
C            0.89478865131837        0.21470364507970       -0.01338594880959
C            0.05820581556956        1.34351376881351       -0.03988110600287
O            0.45539922546504        2.50947652526997        0.06015249153299
N           -1.35671841349261        0.99532287362240       -0.18331880571681
C           -2.18052661799453        2.17028950685943        0.08382628077091
C           -2.00615554829283       -0.23751354715322       -0.60720633575641
O           -3.11499568754992       -0.34494249120551       -1.08055499539299
N           -1.01380818524499       -1.30811731209500       -0.20161103499732
C           -1.44061200062466       -2.66576147633828        0.09457914540948
H            3.75723900603012        1.24568730546782        1.07342853771491
H            4.02971164096072        1.00397342206967       -0.65825509640237
H            2.76050900828914        2.12653646269954       -0.10153402082797
H            3.56543807399538       -1.60365313604498       -0.02542286258668
H           -1.54490002874175        3.05654528113726        0.19390402787616
H           -2.86468812689184        2.32466949985625       -0.73858834379248
H           -2.72340374249918        2.03446623205629        1.02185598524465
H           -0.71715484316535       -3.18182834725106        0.73832708968891
H           -1.55654246158292       -3.24282831960686       -0.82409764681069
H           -2.38793036090181       -2.63151155021408        0.63084472994978
H            1.41569700126503       -2.92875492608586        0.06033508059452
