  25
        -42.07939840
 C          3.2375884266        1.1372028950        0.0138675150
 N          2.2834180319        0.0596293099       -0.0016607308
 C          2.5491524715       -1.2379251363       -0.0098398261
 N          1.3974379139       -1.9437623680       -0.0048171974
 C          0.3625632416       -1.0556276163        0.0071713837
 C          0.9189485899        0.2130061060        0.0103358502
 C          0.0898991238        1.4072400329       -0.0003946765
 O          0.4956812967        2.5438166903       -0.0156296858
 N         -1.2632207055        1.0783886037        0.0039574917
 C         -2.2166210693        2.1815976904        0.0021450567
 C         -1.8441668340       -0.1778241875        0.0014948832
 O         -3.0273178989       -0.3497194158       -0.0000359508
 N         -0.9577828513       -1.2954220353        0.0057216319
 C         -1.4784254293       -2.6046066639       -0.0016021339
 H          3.7368892906        1.1856693131        0.9826551902
 H          3.9888753601        0.9889268728       -0.7606098818
 H          2.7103754341        2.0753022785       -0.1567543735
 H          3.5302715525       -1.6714658355       -0.0217371097
 H         -1.6535885948        3.1114845403        0.0110578900
 H         -2.8435154696        2.1270572854       -0.8869809482
 H         -2.8566917190        2.1175646267        0.8808995552
 H         -1.8244591692       -3.0072303583        0.9304725856
 H         -1.8942681279       -2.9656189956       -0.9270705839
 H         -3.5988359137       -5.0077328605       -0.1090557781
 H          1.3124403629       -2.9513372856       -0.0148875206
