  25
        -42.11878717
 C          3.3920056004        0.9789715023        0.0312431308
 N          2.4284635083       -0.0888121499       -0.0072858903
 C          2.6688579733       -1.3895203278       -0.0606906167
 N          1.5029594415       -2.0719400599       -0.0568959347
 C          0.4791761995       -1.1634440760        0.0004508724
 C          1.0735298306        0.0920801053        0.0320582485
 C          0.2359105258        1.3121813984        0.0476368669
 O          0.7122224999        2.4276185209        0.0447534471
 N         -1.0727394127        1.0167995066        0.0511471352
 C         -4.0809005705        3.1551340509       -0.1806432811
 C         -1.6846564226       -0.1574546479        0.0420499161
 O         -2.8770407805       -0.3209657487        0.0460286462
 N         -0.8389639669       -1.3582310133        0.0172860188
 C         -1.4568492400       -2.6617024708        0.0096705036
 H          3.8236957216        1.0605716127        1.0299306974
 H          4.1892122370        0.7996535050       -0.6870164438
 H          2.8771855566        1.9128501144       -0.1984773631
 H          3.6405660538       -1.8414095052       -0.1056094546
 H         -3.3357734672        3.9268712970       -0.1752634872
 H         -4.3994796513        2.7200491109       -1.1081181932
 H         -4.4929999929        2.7973863371        0.7427077340
 H         -1.1513427747       -3.2393440517        0.8834363875
 H         -1.2088157468       -3.2056025932       -0.9032935800
 H         -2.5347698774       -2.5025738827        0.0462087080
 H          1.4164336640       -3.0778723034       -0.0924693919
