  25
        -42.15971952
 C          2.9162281140        0.8657232241        0.4380197520
 N          1.9075211542       -0.1173216734        0.1065679899
 C          2.2192953191       -1.3047417038       -0.3549335104
 N          1.2802706222       -2.2133636059       -0.7459830988
 C         -0.0910837222       -2.0640859454       -0.4086626119
 C          0.5837735634        0.2424275098        0.3194951365
 C         -0.0081568341        1.5128500570        0.1243409870
 O          0.4588553539        2.6256825768        0.1109256121
 N         -1.4139200018        1.2502514153       -0.0568349274
 C         -2.3682138904        2.3220201244       -0.2427667254
 C         -1.7216876769       -0.0371184244       -0.1167348291
 O         -2.7160084409       -0.6602922454       -0.3095202798
 N         -0.4153798876       -0.7734713962        0.1717449038
 C         -0.4887130509       -1.9651880682        1.0169424007
 H          3.1708320545        0.8018003779        1.4978475071
 H          3.8104651311        0.7025921925       -0.1591038760
 H          2.5159147895        1.8619670436        0.2431204957
 H          3.2542052303       -1.5679768777       -0.4912311173
 H         -1.8151518661        3.1958492436       -0.5848220898
 H         -3.1154219004        2.0261085485       -0.9760000606
 H         -2.8584886582        2.5564568856        0.7026385863
 H          0.2658628405       -2.0554478664        1.7874332989
 H         -0.7862309736       -2.4656073774       -1.1330038554
 H         -1.4938584844       -2.2498135967        1.3083222023
 H          1.5924471151       -3.1393014230       -0.9974628391
