  25
        -42.17175665
 C          3.6389274908        0.8425846981       -0.0068032666
 N          2.5873555445       -0.1381937568       -0.0002441343
 C          2.7274609531       -1.4647490953        0.0024656886
 N          1.5178846127       -2.0604263819        0.0035676929
 C          0.5574295874       -1.0845087932        0.0011231478
 C          1.2459531690        0.1390449702       -0.0013880713
 C          0.5110149572        1.3783625355        0.0015239337
 O          1.0027337986        2.4939495202        0.0059183487
 N         -0.8591590449        1.1592353727       -0.0001082047
 C         -1.7306866097        2.3141494742        0.0008907942
 C         -1.5075451141       -0.1057673649       -0.0000421881
 O         -2.7196967283       -0.1413863052       -0.0008933132
 N         -0.7450493090       -1.2241729837        0.0016638859
 C         -5.5786607024       -2.4144853395       -0.0071006673
 H          4.2914016411        0.7074191030        0.8567040773
 H          4.2368347503        0.7536777348       -0.9151508345
 H          3.1890112108        1.8352478898        0.0305795431
 H          3.6664219612       -1.9833067420        0.0038790758
 H         -1.1125769201        3.2114099351        0.0018205567
 H         -2.3723523838        2.2967628960       -0.8824438324
 H         -2.3726489352        2.2952713827        0.8839667067
 H         -6.0220522103       -2.7282455067        0.9196537091
 H         -5.9929441348       -2.7567300955       -0.9353763543
 H         -4.7282597525       -1.7536039212       -0.0057425532
 H          1.3377630379       -3.0545177286        0.0057268911
