25
 energy: -42.003234217394 gnorm: 0.002332908649 xtb: 6.6.1 (8d0f1dd)
C            2.02542160205926        1.80668321855458        0.13088970935872
N            2.03847523094489        0.40273256286935        0.09487458754366
C            5.17547561228420       -0.71119205140785       -0.34574351812219
N            0.97631737404853       -2.34022701214053        0.04127145196013
C            0.22822884819878       -1.32692475142547        0.03736328026103
C            0.80258414014423        0.00498925545884        0.07092917398949
C           -0.06779124084468        1.14379242118039        0.09276882970894
O            0.64534155945004        2.24463474099209        0.13156549505733
N           -1.38168154642904        1.05514322338303        0.07667084886224
C           -2.25797577930432        2.21027919750341        0.10449911275113
C           -2.00348263030457       -0.22892417375855        0.01431784574916
O           -3.19950394768673       -0.29157606497602       -0.02343627472590
N           -1.17363783273485       -1.32695470391987        0.00048782052650
C           -1.83345123679405       -2.62549436777109       -0.06627398078965
H            2.52567675846800        2.18818084508897        1.03246155232626
H            6.13735845369072       -0.25132853157680       -0.45229232840270
H            2.53842947233022        2.23772223992454       -0.73910118832046
H            4.87690069832740       -1.73716490281700       -0.27670354601028
H           -1.65504616875120        3.11293488277840        0.14524176032665
H           -2.88621653399172        2.21183338309753       -0.78642458088267
H           -2.91110386166641        2.14831530096955        0.97562081518289
H           -1.61154127453308       -3.20820000659531        0.82919216262218
H           -1.50368190361858       -3.16668005284897       -0.95382243012693
H           -2.90763240345497       -2.46373288521873       -0.12633383890611
H            0.58296812424979       -3.27060322577089        0.02314885799330
