  72
        -99.40972752
 N         -0.6514376665        1.3340788213        1.4440273998
 C         -1.4503343898        2.2237048571        1.0535140594
 C         -2.7485064994        1.9807654862        0.3320305987
 C         -3.3017076540        0.5645466751        0.4018428597
 C         -4.3702751931        0.2222564525       -0.4337708304
 C         -4.9586681728       -1.0302668540       -0.3934452085
 O         -5.9966890340       -1.4293153496       -1.1603273702
 C         -6.6219468748       -0.5008919364       -2.0135573314
 C         -4.4660027402       -2.0064575013        0.5132558305
 O         -5.0814848382       -3.2050717332        0.4717472247
 C         -4.6914881294       -4.2051362597        1.3835819215
 C         -3.4216356256       -1.6569432694        1.3530585985
 C         -2.8548962008       -0.3892480557        1.3035409701
 C         -2.4783322993        2.3868128554       -1.1404013883
 C         -1.6509061287        1.3453474806       -1.9184663695
 C         -0.2536832233        1.2891015965       -1.4430347542
 N          0.3675113017        0.2178568572       -0.9991867183
 C          1.7278313826        0.2920458129       -0.5255607526
 C          2.7310866655       -0.2668312597       -1.5517216360
 C          4.1255289648       -0.1802249023       -0.9952468539
 C          4.7822727513        1.0388416410       -0.9374440128
 C          6.0505618249        1.1377503800       -0.3875087045
 C          6.6920072137        0.0143344260        0.1140936420
 O          7.9167661087       -0.0075560804        0.6724952590
 C          8.6427820027        1.1947750354        0.7836841890
 C          6.0320480576       -1.2435611778        0.0475694539
 O          6.7324011753       -2.2842915566        0.5405715676
 C          6.1802098432       -3.5778669586        0.4804433264
 C          4.7588439243       -1.3152044050       -0.4965893350
 C         -0.2749409110       -1.0721792085       -0.9429289783
 C         -3.8389629445        2.9130161441        0.9591842857
 C         -3.9430485544        2.6467422804        2.4606935849
 C         -3.6410061249        4.4081486646        0.7122884854
 H         -4.7629723659        0.9520819182       -1.1221491403
 H         -7.0079438557        0.3590542484       -1.4572662030
 H         -7.4534605728       -1.0360100599       -2.4681104227
 H         -5.9437677768       -0.1549185756       -2.8005297316
 H         -4.8390147178       -3.8826495378        2.4185609566
 H         -5.3354751037       -5.0575218320        1.1760634308
 H         -3.6466410121       -4.4967031210        1.2372237313
 H         -3.0395904534       -2.3655301961        2.0698772448
 H         -2.0526411578       -0.1537100858        1.9812376934
 H         -3.4264697669        2.5302953157       -1.6569529643
 H         -1.9477604446        3.3395463096       -1.1574332405
 H         -2.1377878977        0.3748771147       -1.8583425032
 H         -1.6435536402        1.6636580852       -2.9674873074
 H          0.3072351328        2.2120334887       -1.4463371862
 H         -1.2415374829        3.2939637686        1.1738666263
 H          1.8034832936       -0.2732197795        0.4063766075
 H          1.9824029446        1.3317988797       -0.3152553735
 H          2.6574095201        0.3198219558       -2.4695636589
 H          2.4848574627       -1.3026511184       -1.7853512107
 H          4.3115198955        1.9259742140       -1.3333120743
 H          6.5360080138        2.0994047368       -0.3588394329
 H          8.1127378806        1.9268755098        1.4006563594
 H          8.8535469002        1.6281454831       -0.1985424399
 H          9.5796348031        0.9261624972        1.2678245636
 H          6.9324756186       -4.2363541838        0.9103418287
 H          5.2594529167       -3.6495851010        1.0680424910
 H          5.9813818130       -3.8812243044       -0.5521090179
 H          4.2497280539       -2.2647800773       -0.5490089486
 H         -0.5890881698       -1.3958903778       -1.9365337491
 H         -1.1474014637       -1.0258267759       -0.2860097549
 H          0.4211097518       -1.8035368297       -0.5424662595
 H         -4.7920135460        2.6317541639        0.5000556514
 H         -3.0255063125        2.9341756593        2.9699724159
 H         -4.1279049279        1.5932944752        2.6558526089
 H         -4.7609909017        3.2224439810        2.8856385007
 H         -2.7208658115        4.7785515861        1.1562998344
 H         -3.6442185662        4.6513574975       -0.3461795900
 H         -4.4639277648        4.9470679687        1.1756757491
 H          0.1854014641        1.6748154349        1.9104662658
