25
 energy: 0.000000000000 xtb: 6.6.1 (8d0f1dd)
C            3.23720132972391        1.16630909158653        0.08434468864950
N            2.29877796055224        0.07527476373246        0.03981602671198
C            2.58028186251803       -1.21425391179017        0.03006175752192
N            1.43813944744728       -1.93419254010258        0.00098261751768
C            0.39035684826767       -1.05887462812143       -0.00790371763344
C            0.93510047688824        0.21347817468824        0.01709077332874
C            0.09450143016486        1.40504290868848       -0.00410946993748
O            0.49712746915594        2.54126690785742       -0.00342325656480
N           -1.25076628431515        1.06271869620815       -0.03085477937476
C           -2.21907191394203        2.15522079838987       -0.05001256521996
C           -1.81739470187490       -0.20012724136556       -0.04692818139228
O           -2.99983858926755       -0.37846413507442       -0.07008877579474
N           -0.92618577614240       -1.30210203518959       -0.03682761236648
C           -1.46982251276835       -2.64643077634382       -0.06029819901142
H            3.71247229913541        1.21471443890471        1.06488839270555
H            4.00791460421487        1.03430799217987       -0.67357688121503
H            2.69909982127087        2.09770098766290       -0.09130154035862
H            3.56654087521359       -1.63682977417947        0.04233139674524
H           -1.67107945562430        3.09322822573871       -0.02552706696334
H           -2.82428927394145        2.09428605349656       -0.95318074103337
H           -2.87644002486466        2.07745706351925        0.81450059976605
H           -1.17061985538665       -3.19584861009707        0.83242224714061
H           -1.14560246782873       -3.17511580834413       -0.95688266944647
H           -2.55549768731684       -2.55659960601237       -0.07459039105944
H            1.38130842369251       -2.94313824728853       -0.01389874052104
25
 energy: -6.394189269386 xtb: 6.6.1 (8d0f1dd)
C            3.24919845662796        1.17269521181608        0.09466109351762
N            2.30866759560997        0.10158377541751        0.04215817238778
C            2.60140903070756       -1.24294666788784        0.02783893545328
N            1.41876100014476       -1.93983282013868       -0.00617125080049
C            0.39869188316497       -1.06039291255370       -0.01245641864647
C            0.92169019805268        0.22600595417732        0.01336604515964
C            0.11467487709040        1.38603965931894       -0.00756368896120
O            0.49083052527550        2.56132061806163       -0.00991293424752
N           -1.26938069935701        1.04909901648987       -0.03199343864016
C           -2.22239378466547        2.14724985021006       -0.04971089680371
C           -1.81770372626472       -0.19718835615637       -0.04662036659151
O           -3.01653503627736       -0.38496432957373       -0.06759735135089
N           -0.93960060160187       -1.30088818984272       -0.03834736270984
C           -1.47585123440147       -2.64217900931073       -0.05855275653582
H            3.73151338784959        1.24673486450644        1.07553099725234
H            4.02925014967536        1.02398765863966       -0.65270263891220
H            2.71086062749768        2.09605307849112       -0.10647255993980
H            3.57525102574936       -1.66219529514907        0.02214694305116
H           -1.66360263653291        3.08095358942923       -0.02521324595317
H           -2.82881415850889        2.09350369722131       -0.95372043328295
H           -2.88072891185829        2.07560192824343        0.81588305641691
H           -1.17395007122806       -3.19468499593931        0.83444260106979
H           -1.15094116136078       -3.17746706906080       -0.95383348454470
H           -2.56149792707358       -2.55296156314887       -0.07163697674503
H            1.36365549565149       -2.94409856334477       -0.02270809163941
25
 energy: -6.335227314621 xtb: 6.6.1 (8d0f1dd)
C            3.25772181658541        1.17359395195024        0.10400064502188
N            2.31392661356624        0.10181970327137        0.04817857794775
C            2.60287246207987       -1.24755948199060        0.02248698930468
N            1.41635103335426       -1.94130552856293       -0.01502274762319
C            0.39824538870203       -1.05994962815542       -0.01920832587894
C            0.92368487802693        0.22649321073768        0.00955622183767
C            0.11464091156190        1.38465012744472       -0.01224109781397
O            0.48735633736280        2.56153192363985       -0.01610748702787
N           -1.27132223358719        1.04596833596656       -0.03310860016807
C           -2.22468069248605        2.14377448245234       -0.04916688602862
C           -1.82081647639651       -0.19921062216730       -0.04594676048527
O           -3.02025876462081       -0.38656795686710       -0.06293549557456
N           -0.94157972135677       -1.30152909937801       -0.04085390699446
C           -1.48076249263330       -2.64197556012486       -0.05657265230145
H            3.74414254377756        1.27629337083704        1.08297716182628
H            4.04854985342058        1.01075350938314       -0.62773498078141
H            2.72319151273484        2.09280095914960       -0.12292212780462
H            3.57378999509033       -1.67506280156781        0.00274729013576
H           -1.66432892332424        3.07660993606556       -0.02590634985929
H           -2.83247793188450        2.09027557025813       -0.95250915344613
H           -2.88296315810749        2.07278632371395        0.81694384184628
H           -1.17991616188775       -3.19359640443552        0.83759402138747
H           -1.15879378576854       -3.18024481943268       -0.95107421861847
H           -2.56657622311472       -2.54988614484872       -0.06837741723463
H            1.35454789007646       -2.94559864710368       -0.03151565058251
25
 energy: -6.127055013106 xtb: 6.6.1 (8d0f1dd)
C            3.26777117084098        1.17416965608271        0.11111745492949
N            2.31937665788704        0.10190295364412        0.05658151565913
C            2.60313505205844       -1.25150701963424        0.01794705577706
N            1.41317241128977       -1.94111870202645       -0.02030874961102
C            0.39706465925561       -1.05812416852315       -0.02029066714083
C            0.92612304969228        0.22782640384647        0.01212077345017
C            0.11354081550938        1.38391715658650       -0.01477861512306
O            0.48319044757556        2.56111767322482       -0.02415665142021
N           -1.27355114437147        1.04376090969535       -0.03515796653245
C           -2.22803964559409        2.14068775632939       -0.04935591437677
C           -1.82436458083876       -0.20077898460369       -0.04692492195335
O           -3.02405534815247       -0.38770160112237       -0.06260979418838
N           -0.94361013539404       -1.30156414574833       -0.04150383890313
C           -1.48447227624639       -2.64248401989505       -0.05503298076769
H            3.75723834837328        1.30434028846875        1.08875435011387
H            4.06690295680577        0.99710002636131       -0.60831208834872
H            2.73852916505818        2.09017685315705       -0.13829437716090
H            3.57068385266017       -1.68815139188102       -0.02132330555088
H           -1.66516522431107        3.07162671720780       -0.02343908668868
H           -2.83711055631678        2.09121756544293       -0.95243165630612
H           -2.88720271702523        2.06833783942946        0.81629462272323
H           -1.18364759394567       -3.19365149656102        0.83935239040557
H           -1.16576401027758       -3.18460789866125       -0.94823667994798
H           -2.57078632556199       -2.55116820310872       -0.06485039667707
H            1.34457236357215       -2.94503036908543       -0.04173520077792
25
 energy: -5.752055596405 xtb: 6.6.1 (8d0f1dd)
C            3.27705283329237        1.17520687168771        0.11917897796070
N            2.32408000828907        0.10264091312229        0.06411795358931
C            2.60327492661140       -1.25475742933204        0.01109027932762
N            1.41027061683735       -1.94062860832308       -0.02828778480921
C            0.39603102271250       -1.05642469699005       -0.02354716590576
C            0.92794809994842        0.22944731468974        0.01319138369410
C            0.11218911132247        1.38248905732853       -0.01761501923728
O            0.47762375805756        2.56043289718925       -0.03139243895349
N           -1.27609032938297        1.04082987757123       -0.03653635211435
C           -2.23085358005002        2.13735867183165       -0.04936552256523
C           -1.82768256606686       -0.20283924317417       -0.04668297987737
O           -3.02760763964539       -0.38970076229499       -0.06021273559702
N           -0.94559799835408       -1.30185956451930       -0.04272393035803
C           -1.48863484737735       -2.64249926388312       -0.05299099204192
H            3.76904969161800        1.33328615219899        1.09496163852309
H            4.08534709209446        0.98239100956996       -0.58580400227558
H            2.75376756753845        2.08787600611634       -0.15420473517859
H            3.56709859076894       -1.69870715709728       -0.04471435801412
H           -1.66579483637522        3.06676759592196       -0.02250816878801
H           -2.84096773864994        2.09007386638406       -0.95207310326326
H           -2.89021659346711        2.06443693128624        0.81631623136580
H           -1.18852974290679       -3.19288070275946        0.84219252261299
H           -1.17303116752152       -3.18770806146758       -0.94539393311649
H           -2.57521118269598       -2.54967281426950       -0.06111646931974
H            1.33590459028160       -2.94428571250811       -0.05318423825146
25
 energy: -5.219345927069 xtb: 6.6.1 (8d0f1dd)
C            3.28614906263072        1.17694851537181        0.12805196787900
N            2.32831123171149        0.10431278343411        0.07174921694151
C            2.60299393709124       -1.25602295048912        0.00224159000434
N            1.40776239087148       -1.93972215281022       -0.03763109716937
C            0.39504294385412       -1.05468322667906       -0.02706304429793
C            0.92959265032252        0.23110186688383        0.01525453119018
C            0.11060329904576        1.38084776142391       -0.02032536327035
O            0.47147463408751        2.55962736815878       -0.03874319160275
N           -1.27878093979535        1.03769195158714       -0.03778890626285
C           -2.23359912981744        2.13394913665815       -0.04947245719762
C           -1.83092185682507       -0.20512726089177       -0.04582961301820
O           -3.03098581766006       -0.39229018998017       -0.05683626384208
N           -0.94745021280313       -1.30223131391327       -0.04397274203766
C           -1.49291460998428       -2.64239538200568       -0.05045295427659
H            3.78033739085408        1.36252716948770        1.10172970469093
H            4.10329428221277        0.96787050587207       -0.56205370741593
H            2.77010961363240        2.08676915791348       -0.16857247626450
H            3.56344632273077       -1.70619090035684       -0.06829585019925
H           -1.66621785193607        3.06173302882494       -0.02223671727782
H           -2.84487838779299        2.08845756481928       -0.95165848818429
H           -2.89280789016821        2.06097250536448        0.81651722425899
H           -1.19363857103462       -3.19202590317459        0.84560276706364
H           -1.18066783771920       -3.19065868636931       -0.94216737027510
H           -2.57967402031613       -2.54734610958153       -0.05674248753681
H            1.32836312171110       -2.94321096355071       -0.06611981525849
25
 energy: -4.558228717254 xtb: 6.6.1 (8d0f1dd)
C            3.29583581554825        1.17874508503942        0.13621890125127
N            2.33229983748189        0.10660653358375        0.08065544859245
C            2.60189653005092       -1.25576236250033       -0.00656725490000
N            1.40511218070543       -1.93827541286629       -0.04570070368882
C            0.39382101405703       -1.05264542436093       -0.02939362586315
C            0.93098204761185        0.23290171236691        0.02021503066907
C            0.10903333537737        1.37941031614095       -0.02220870862039
O            0.46565218641125        2.55908428635978       -0.04516656481247
N           -1.28156401217640        1.03474351747946       -0.03910410558368
C           -2.23647196964385        2.13080275798719       -0.04974645798674
C           -1.83423378148905       -0.20729993482950       -0.04505580622882
O           -3.03437701789739       -0.39509353123644       -0.05175123627902
N           -0.94940754447945       -1.30246149509079       -0.04566143074585
C           -1.49658845485099       -2.64250614791230       -0.04841236225004
H            3.79102484236275        1.39324146632450        1.10715253285420
H            4.12129551400218        0.95295765991285       -0.53918625673027
H            2.78774915163165        2.08581666755015       -0.18217879444907
H            3.55910842343609       -1.71169455487090       -0.09387404066527
H           -1.66708642368839        3.05713267616474       -0.02119229808647
H           -2.84809478395382        2.08748895114647       -0.95193445082907
H           -2.89626805809475        2.05734173003605        0.81586757740079
H           -1.19705756831959       -3.19089030055694        0.84842900078529
H           -1.18773487348660       -3.19418631123698       -0.93923680163480
H           -2.58355203506409       -2.54638867113266       -0.05251827124052
H            1.32157751686760       -2.94158509316370       -0.07858126599097
25
 energy: -3.851611823038 xtb: 6.6.1 (8d0f1dd)
C            3.30560401013109        1.18129442521245        0.14504780022649
N            2.33545315606951        0.11094574900376        0.08972613660649
C            2.60079619438120       -1.25241909473945       -0.00014842147666
N            1.40363750214100       -1.93585189009707       -0.05309632765524
C            0.39289330495333       -1.05051067794531       -0.03265749486819
C            0.93176043931218        0.23498853767292        0.02460422108566
C            0.10705090854091        1.37838500231289       -0.02485154364989
O            0.45979235507596        2.55886958510138       -0.05238655849481
N           -1.28448073948264        1.03208135019630       -0.04077483790408
C           -2.23976479446958        2.12772037193803       -0.04987883517552
C           -1.83721141738918       -0.20943150098700       -0.04425051920407
O           -3.03731041618592       -0.39824484903035       -0.04633606245697
N           -0.95094190220016       -1.30261684590753       -0.04791526665090
C           -1.49993094006959       -2.64242963897957       -0.04594160769345
H            3.80147056454718        1.42391467951571        1.11296472281038
H            4.13949197260701        0.93811060427323       -0.51466105875334
H            2.80628940265370        2.08520180952952       -0.19551957389463
H            3.55350394263000       -1.71368956542480       -0.12092829873770
H           -1.66883117383063        3.05296292610744       -0.02051531289311
H           -2.85209213231679        2.08598151999320       -0.95177300742401
H           -2.89947927424476        2.05319068756486        0.81574060621098
H           -1.20047909554301       -3.18905428727909        0.85212462983472
H           -1.19464923669307       -3.19766870338660       -0.93577207189837
H           -2.58696675875412       -2.54464880755125       -0.04797752236277
H            1.31774149023503       -2.93920624440128       -0.09077479391768
25
 energy: -3.096253242370 xtb: 6.6.1 (8d0f1dd)
C            3.31552604835872        1.18370564989174        0.15526240973986
N            2.33872613960576        0.11497057111347        0.09810795812863
C            2.60121395669887       -1.25068160303243        0.01353835520319
N            1.40300607925328       -1.93346476087873       -0.06154801466858
C            0.39254481232439       -1.04850615087828       -0.03676195741453
C            0.93285478289936        0.23680549768336        0.02838452505867
C            0.10498494773253        1.37745487667166       -0.02728790950845
O            0.45382258074038        2.55855304197927       -0.05954502405163
N           -1.28726779032422        1.02963582285734       -0.04223198330623
C           -2.24365967096700        2.12441039278854       -0.05060183128607
C           -1.83972772770405       -0.21164332704665       -0.04290772581095
O           -3.03971027568840       -0.40159621409387       -0.04157580379151
N           -0.95189286764450       -1.30277426794493       -0.04992366381518
C           -1.50299759479314       -2.64219159860840       -0.04222110804868
H            3.81246347637035        1.45315174999358        1.12048311113922
H            4.15686269679808        0.92377468993758       -0.48939351496214
H            2.82539604651954        2.08390752556764       -0.20730321659597
H            3.54897480987018       -1.71223217497470       -0.14845198065749
H           -1.67287966297820        3.04930860198839       -0.02101002384264
H           -2.85656873712754        2.08336477081164       -0.95217402801845
H           -2.90300483806575        2.04901174633369        0.81519149186332
H           -1.20373616013805       -3.18685665220759        0.85723085486267
H           -1.20148291929434       -3.20079852400205       -0.93121100071053
H           -2.59002378333795       -2.54188180982530       -0.04213790899200
H            1.31484237658982       -2.93665189734395       -0.10497863484248
25
 energy: -2.308917124852 xtb: 6.6.1 (8d0f1dd)
C            3.32512434199992        1.18599625080948        0.16502683673461
N            2.34181028494823        0.11859269247237        0.10686059993140
C            2.60201068532740       -1.24982132270619        0.02804154543278
N            1.40248452195953       -1.93076810089249       -0.06933278389742
C            0.39219905747417       -1.04642273663017       -0.04048229413004
C            0.93381024842188        0.23852470426855        0.03273986189749
C            0.10290022549019        1.37685757302789       -0.03005113142269
O            0.44795937619177        2.55837045629110       -0.06650996604505
N           -1.29003436451840        1.02754600209916       -0.04393041883166
C           -2.24757398579475        2.12150119605037       -0.05137238706292
C           -1.84199149460134       -0.21378910295683       -0.04162794393184
O           -3.04176565942229       -0.40508846478005       -0.03595427019371
N           -0.95272146229760       -1.30292731268558       -0.05254472507147
C           -1.50563729545224       -2.64209711592463       -0.03866752063490
H            3.82103331963716        1.48340712506051        1.12737374711644
H            4.17376142170654        0.90912510735015       -0.46363622005655
H            2.84406733923203        2.08165095698216       -0.21943227537031
H            3.54410918848452       -1.70871308913664       -0.17600067378857
H           -1.67771336751708        3.04659677794536       -0.02123716069845
H           -2.86073330197392        2.08105515833040       -0.95274396238691
H           -2.90662928029375        2.04513628330168        0.81449511738162
H           -1.20593468519085       -3.18469545359103        0.86192748527979
H           -1.20810854580075       -3.20418607110727       -0.92679911376338
H           -2.59263189856776       -2.53961226544808       -0.03638002089634
H            1.31327027740837       -2.93373885931150       -0.11871866104727
25
 energy: -1.484595995803 xtb: 6.6.1 (8d0f1dd)
C            3.33422484547592        1.18863135753939        0.17489474786781
N            2.34440543066111        0.12246071876914        0.11565582208769
C            2.60312541783554       -1.24860854829339        0.04188115044669
N            1.40262178422795       -1.92772686084470       -0.07691519757884
C            0.39218216999899       -1.04425656263348       -0.04393914108328
C            0.93447236630996        0.24040442153765        0.03695538533925
C            0.10015362683431        1.37652770702380       -0.03351147984753
O            0.44193226873199        2.55830507116588       -0.07361253200480
N           -1.29300606622488        1.02570709292478       -0.04598874689007
C           -2.25158637988822        2.11898244516959       -0.05247074069901
C           -1.84394509770786       -0.21598604366045       -0.04035068567225
O           -3.04343201123256       -0.40881775648027       -0.03002984324875
N           -0.95285340929427       -1.30311503433432       -0.05571264215009
C           -1.50765144095551       -2.64202392803779       -0.03494912717089
H            3.82753836936270        1.51417192203308        1.13490630539571
H            4.18991210514920        0.89435762102379       -0.43661707539144
H            2.86169312152927        2.07794369291055       -0.23356395024764
H            3.53946575739665       -1.70167596412511       -0.20197572624797
H           -1.68296309386166        3.04474241662242       -0.02182866120157
H           -2.86484178154683        2.07887455724621       -0.95372151096612
H           -2.91044880134001        2.04145801554987        0.81331592082432
H           -1.20734781498448       -3.18204748704385        0.86699749808683
H           -1.21438692906512       -3.20787754007745       -0.92206281892109
H           -2.59461953713955       -2.53736573741763       -0.03036542520418
H            1.31386935248391       -2.93046372217028       -0.13246874966154
25
 energy: -0.651449098057 xtb: 6.6.1 (8d0f1dd)
C            3.34235010138091        1.19163638660000        0.18513301742951
N            2.34617595878005        0.12678854856016        0.12503875383393
C            2.60443640779333       -1.24660611990354        0.05514606694065
N            1.40346523219694       -1.92390130435528       -0.08422709508985
C            0.39236980896413       -1.04160828277209       -0.04677137663102
C            0.93461082924010        0.24284317598918        0.04132969401473
C            0.09704774486964        1.37723301542027       -0.03630631851895
O            0.43585300495647        2.55903930081892       -0.08065477360810
N           -1.29603149449557        1.02442486834305       -0.04824446977657
C           -2.25580343838858        2.11686868787924       -0.05386631162444
C           -1.84552435638586       -0.21799168584298       -0.03903228999495
O           -3.04464597121299       -0.41249379456835       -0.02386446206752
N           -0.95224627802121       -1.30313340127570       -0.05922744425464
C           -1.50854527402049       -2.64196364706535       -0.03116219310920
H            3.83206180878746        1.54558691503778        1.14371028596583
H            4.20401123763779        0.87902517519738       -0.40867427855876
H            2.87660889575207        2.07246664760230       -0.24960097387549
H            3.53579063203036       -1.68966847181800       -0.22554237954378
H           -1.68879612867021        3.04364988801624       -0.02246529461556
H           -2.86890172690508        2.07675925180044       -0.95515122002776
H           -2.91435077329428        2.03784435705230        0.81196001034413
H           -1.20519740242341       -3.17948478079947        0.87089598010913
H           -1.22025003240321       -3.21153067082417       -0.91732848885090
H           -2.59559019050024       -2.53535017412856       -0.02370446566334
H            1.31618198813855       -2.92616178376270       -0.14539650755020
25
 energy: 0.086420601765 xtb: 6.6.1 (8d0f1dd)
C            3.34845353157230        1.19452385652001        0.19571077587269
N            2.34643267216364        0.13066231034870        0.13467115848076
C            2.60630849708528       -1.24475624077397        0.06826249430542
N            1.40454914320304       -1.91956923821925       -0.09002395590523
C            0.39260611555986       -1.03856984471956       -0.04793835458855
C            0.93461451837463        0.24551058542376        0.04196490218442
C            0.09405596365235        1.37922814036439       -0.03823019044346
O            0.42989737516388        2.56078867462530       -0.08744382179876
N           -1.29876626826731        1.02378137100085       -0.05054821055905
C           -2.25984012849950        2.11514865954271       -0.05450383582971
C           -1.84671597439021       -0.21976836866242       -0.03760061577386
O           -3.04540604835913       -0.41592683827982       -0.01733316570294
N           -0.95109911092080       -1.30276578261740       -0.06279793118590
C           -1.50611419164522       -2.64233578719578       -0.03184221421998
H            3.83192591422542        1.57663909694419        1.15466647646354
H            4.21403382330237        0.86142040444315       -0.38005113343905
H            2.88769288847965        2.06469092656539       -0.26771106793283
H            3.53201624747638       -1.67770375717061       -0.24922452368846
H           -1.69463311318455        3.04328127818788       -0.02189364136273
H           -2.87206707823665        2.07532676868857       -0.95599842332056
H           -2.91789816431700        2.03403307558155        0.81130861054456
H           -1.20033098880376       -3.17984732702673        0.86871037469643
H           -1.22086917524848       -3.21423717767680       -0.91647539377883
H           -2.59318433869058       -2.53561645877059       -0.02107904257556
H            1.31920006382356       -2.92195980705036       -0.14044856173091
25
 energy: -0.228511559157 xtb: 6.6.1 (8d0f1dd)
C            3.34663038516382        1.19234380291398        0.19996178234544
N            2.34306568321923        0.13074491350463        0.14051607907718
C            2.60799664506959       -1.24557500571529        0.08063652921574
N            1.40544871225858       -1.91789116191201       -0.09372935225436
C            0.39338640896162       -1.03747102438590       -0.05122887472590
C            0.93458526246568        0.24613332026509        0.03898766706182
C            0.09395685432446        1.38163709504955       -0.03770431730690
O            0.43031263045477        2.56278575997544       -0.08590092423389
N           -1.29805565286335        1.02481822483972       -0.05136156439710
C           -2.25899082236260        2.11606378660554       -0.05109483815313
C           -1.84578073587212       -0.21941558602537       -0.03689460482637
O           -3.04426087491781       -0.41607801047195       -0.01074759220972
N           -0.94973816919992       -1.30190345652013       -0.06673855487554
C           -1.50296219393835       -2.64231060248587       -0.03673837875043
H            3.81152279926014        1.58722225134176        1.16547204545120
H            4.21585257242064        0.83986857365655       -0.35653379523577
H            2.89041001213123        2.05671251422190       -0.28064009842751
H            3.52681375674528       -1.66823218270328       -0.27357458029736
H           -1.69417491958601        3.04446870934502       -0.01739214123556
H           -2.87112286185512        2.07771927922716       -0.95245947879843
H           -2.91601411113375        2.03436537569332        0.81539694211593
H           -1.19696119874989       -3.17965962008678        0.86387902816419
H           -1.21497580889772       -3.21263920172623       -0.92168920470698
H           -2.59007463819696       -2.53797967547474       -0.02637379933749
H            1.31748262138227       -2.92121661194177       -0.12663309046643
25
 energy: 7.377105208914 xtb: 6.6.1 (8d0f1dd)
C            3.34706700921733        1.19599242906340        0.20652011878891
N            2.34231756183308        0.12676700735093        0.12268873232867
C            2.60119407457127       -1.25282611789999        0.06656752917069
N            1.39789615148514       -1.92731600599354       -0.09493234696435
C            0.38738712903378       -1.04468856777665       -0.05625769881985
C            0.93081618545437        0.23838233330605        0.02719046215204
C            0.09033609375638        1.37492412025617       -0.04437741861093
O            0.43126147830866        2.55389485670289       -0.09116815558914
N           -1.30016670044718        1.02278704116327       -0.05335335916084
C           -2.25978706688442        2.11554506257456       -0.05243290471306
C           -1.84951124696155       -0.22169087846871       -0.03779571034980
O           -3.04814758256036       -0.41482928912649       -0.01202943890357
N           -0.95612661165000       -1.30563847049795       -0.06591023576774
C           -1.51081442504481       -2.64543852058988       -0.03471063135328
H            3.89983081099535        1.67222911821358        1.19708667748162
H            4.21601625187124        0.83493185149919       -0.33872452378940
H            2.87630186398268        2.05774796368967       -0.26154012548346
H            3.51616819464192       -1.67733989929267       -0.29140159663740
H           -1.69547037169671        3.04440970410436       -0.01831679542293
H           -2.87294827916258        2.07715322569077       -0.95335395668761
H           -2.91619997794297        2.03296653081515        0.81429321489546
H           -1.20552536908303       -3.18143295968834        0.86715293752557
H           -1.22238564658607       -3.21594381876506       -0.91949737923816
H           -2.59769198295387       -2.54001656511459       -0.02506181497314
H            1.31039676079502       -2.93154136247209       -0.12360166768371
