25
 energy: 0.000000000000 xtb: 6.6.1 (8d0f1dd)
C            3.23720163006194        1.16630919979326        0.08434469647475
N            2.29877817382611        0.07527477071623        0.03981603040599
C            2.58028210190900       -1.21425402444508        0.03006176031096
N            1.43813958087363       -1.93419271955128        0.00098261760884
C            0.39035688448383       -1.05887472636071       -0.00790371836672
C            0.93510056364412        0.21347819449412        0.01709077491437
C            0.09450143893243        1.40504303904423       -0.00410947031874
O            0.49712751527797        2.54126714362870       -0.00342325688240
N           -1.25076640035757        1.06271879480407       -0.03085478223738
C           -2.21907211982101        2.15522099834493       -0.05001256985998
C           -1.81739487048744       -0.20012725993278       -0.04692818574614
O           -2.99983886758376       -0.37846417018721       -0.07008878229737
N           -0.92618586207120       -1.30210215599479       -0.03682761578324
C           -1.46982264913417       -2.64643102187190       -0.06029820460571
H            3.71247264356769        1.21471455160235        1.06488849150277
H            4.00791497605742        1.03430808813993       -0.67357694370751
H            2.69910007168542        2.09770118228144       -0.09130154882931
H            3.56654120610678       -1.63682992603973        0.04233140067262
H           -1.67107961066214        3.09322851271934       -0.02552706933167
H           -2.82428953597071        2.09428624779827       -0.95318082946668
H           -2.87644029173232        2.07745725625962        0.81450067533302
H           -1.17061996399332       -3.19584890659852        0.83242232437030
H           -1.14560257411436       -3.17511610292205       -0.95688275822323
H           -2.55549792440841       -2.55659984320617       -0.07459039797972
H            1.38130855184625       -2.94313852034425       -0.01389874181052
25
 energy: -3.308123296231 xtb: 6.6.1 (8d0f1dd)
C            3.26965466740264        1.17971477060196        0.12462818161699
N            2.31481290269433        0.09411021324042        0.05403012811621
C            2.59372112387175       -1.23839920828420        0.01218866602235
N            1.41914178316156       -1.94439070213683       -0.02054710136255
C            0.38999534785211       -1.05948468693067       -0.01963651478782
C            0.93081015934504        0.21884731831977        0.00758301158101
C            0.09628236758724        1.38922973793890       -0.01788127319318
O            0.49138657970372        2.55484264256563       -0.01890977456891
N           -1.26705051021036        1.04555342952188       -0.03599333841787
C           -2.22807248644738        2.14228386783074       -0.04967945588754
C           -1.83179713848506       -0.20499752246505       -0.04633353275435
O           -3.02872244667846       -0.38642504557759       -0.06052555830149
N           -0.94251600775497       -1.30518928890060       -0.04076236466731
C           -1.48604505862910       -2.64677262275424       -0.05520930784869
H            3.81555584766966        1.37217645256779        1.10076181697214
H            4.04822404373488        1.00772427494208       -0.61558015642479
H            2.71881601119414        2.09011586916871       -0.11473923692840
H            3.56746193520931       -1.67235157055490        0.00068245818692
H           -1.66857028543815        3.07476376482948       -0.02357713168779
H           -2.83586704165720        2.09144855773053       -0.95270355016201
H           -2.88511080343469        2.07013492788066        0.81655285412422
H           -1.18263888121868       -3.19612151473469        0.83816391862022
H           -1.16462489513905       -3.18383155288564       -0.94966547506651
H           -2.57179168285514       -2.55512725728151       -0.06533365786830
H            1.34915913645812       -2.94882625246064       -0.04047970916526
25
 energy: 3.493027247715 xtb: 6.6.1 (8d0f1dd)
C            3.30918679444450        1.19277279674812        0.17056785110849
N            2.33580441267531        0.11251968632512        0.08356642276974
C            2.60041706026395       -1.25672777556968       -0.01100962386500
N            1.39905681793306       -1.94464266228121       -0.05342891616116
C            0.38946054677326       -1.05592334420320       -0.03649633929385
C            0.92957649925625        0.22744696732453        0.00585060492683
C            0.09781005469433        1.36862468380574       -0.03256287210632
O            0.46910883547630        2.55170425362979       -0.04568551914947
N           -1.28664241877143        1.02775170481562       -0.04260286793150
C           -2.23998995570633        2.12821711371590       -0.05018849002654
C           -1.84247409648074       -0.21160374220413       -0.04343663858505
O           -3.04445876564581       -0.39904196698076       -0.04355443961469
N           -0.95718363493943       -1.30598661461314       -0.04742301997498
C           -1.50427319014735       -2.64568084136536       -0.04642256891491
H            3.90754083294756        1.56072534374704        1.14656550076715
H            4.11990912181625        0.95481919103794       -0.52160813325312
H            2.75658434947065        2.08243962303379       -0.15758490702015
H            3.55958611527699       -1.70913847997989       -0.07023792377570
H           -1.66966209345233        3.05479035675596       -0.02109798645442
H           -2.85180587171455        2.08747295806043       -0.95189072690055
H           -2.89701409930704        2.05821232931799        0.81703741963729
H           -1.20030358885768       -3.19418207077650        0.84902638081802
H           -1.19440110245714       -3.19766097020169       -0.93746366660696
H           -2.59067976617541       -2.55035580450359       -0.04925244177547
H            1.31706181056313       -2.94752413346682       -0.08363320247035
25
 energy: 8.747664996008 xtb: 6.6.1 (8d0f1dd)
C            3.33610476899747        1.20007618069431        0.19645414507538
N            2.34697235408320        0.12265314857681        0.10148702707048
C            2.59903103911962       -1.25780517492111       -0.02472497155076
N            1.39325661565823       -1.93872427248709       -0.08055239124918
C            0.38837921241419       -1.05189775507654       -0.04740189020608
C            0.93055060739389        0.23421827669773        0.01052544314510
C            0.09453424883981        1.36553879303148       -0.04143428315537
O            0.44673486036547        2.55173262756900       -0.07086599347968
N           -1.29885581656813        1.02175990988091       -0.04842420663653
C           -2.25173953882966        2.12001393774936       -0.05222567438867
C           -1.84876918221822       -0.21763916264061       -0.03930272555686
O           -3.05036326237003       -0.41077995502424       -0.02760505360807
N           -0.96157806839818       -1.30662483447050       -0.05191656372075
C           -1.51389154598417       -2.64543233236089       -0.03625746987009
H            3.93221146539749        1.64914128727119        1.18173255266866
H            4.18436604492217        0.90621369292346       -0.43589401357745
H            2.80853544303929        2.08146303370428       -0.19559726597995
H            3.55075930956071       -1.72274210939646       -0.13506529061236
H           -1.67927906114140        3.04460003761538       -0.02124534606180
H           -2.86548068544936        2.08179295003488       -0.95279529920194
H           -2.90784725551480        2.04629327649101        0.81559744428606
H           -1.21086513916079       -3.18948307959759        0.86237374550389
H           -1.21719101591155       -3.20916406039596       -0.92454794362098
H           -2.60078079804747       -2.54400625813242       -0.03208225344133
H            1.30742006773854       -2.94216955556440       -0.12319782568444
25
 energy: 10.156940253457 xtb: 6.6.1 (8d0f1dd)
C            3.34889976867259        1.20063746881578        0.20610315877620
N            2.34966561060742        0.12663053229871        0.10899287876238
C            2.59582063088243       -1.25172611034494       -0.02655143069192
N            1.39455088459486       -1.93235178067171       -0.09508451268481
C            0.38677031722000       -1.04874289018469       -0.05125099272788
C            0.93053302875622        0.23784805956449        0.01872601658421
C            0.09149960849265        1.36946949989388       -0.04449956480357
O            0.43363896295033        2.55286272832616       -0.08591018366699
N           -1.30391407219045        1.02124114292537       -0.05227341662016
C           -2.25925862823079        2.11636917772206       -0.05441040524361
C           -1.85176685286335       -0.22104119594781       -0.03670936278127
O           -3.05171616857076       -0.41622465647975       -0.01779304396376
N           -0.96155315889095       -1.30713276897872       -0.05466739590922
C           -1.51659801246224       -2.64585719384015       -0.02994853239124
H            3.93391245639357        1.67295719266777        1.19890945832341
H            4.21365308310185        0.87566954880237       -0.38261416141965
H            2.84892937625606        2.07679329972850       -0.21810109094364
H            3.54288082282027       -1.71945372890504       -0.17922264539272
H           -1.68961413133927        3.04203296945031       -0.02218839062388
H           -2.87307877813828        2.07799408006932       -0.95483122875857
H           -2.91545698684666        2.03844745610942        0.81304039391035
H           -1.21376263018300       -3.18569399505194        0.87087420580923
H           -1.22735964883173       -3.21520267482055       -0.91631747000623
H           -2.60360267256067       -2.54020937636005       -0.02218518447008
H            1.30914185829626       -2.93628818261678       -0.14505320291931
25
 energy: 9.810541426712 xtb: 6.6.1 (8d0f1dd)
C            3.35245575303334        1.19849963135534        0.20700992241880
N            2.34843775424253        0.12765763254938        0.11266724254137
C            2.59353162123548       -1.24463255844009       -0.01853660748710
N            1.39756972616442       -1.92699880296900       -0.10095665840909
C            0.38527124500278       -1.04631743845179       -0.05153394505460
C            0.92959849344227        0.23959017087924        0.02750306429451
C            0.09059747888195        1.37400392269722       -0.04426862633031
O            0.42832994601708        2.55424138836286       -0.09278948541244
N           -1.30442232061559        1.02176070732690       -0.05373806487521
C           -2.26228327228053        2.11488175295163       -0.05474983094399
C           -1.85257639350798       -0.22238333635390       -0.03556192542877
O           -3.05116440262061       -0.41694263793050       -0.01244589249922
N           -0.96030922124090       -1.30734149670820       -0.05713454230388
C           -1.51578798721226       -2.64638534629414       -0.02833703133949
H            3.92375213138166        1.67478123014692        1.20565867803642
H            4.22124171103388        0.85261632843736       -0.35185184095087
H            2.87273990938489        2.06873906027150       -0.23966986494183
H            3.53658293447633       -1.70865340123751       -0.20707142607047
H           -1.69611526320781        3.04245666426223       -0.02134885802151
H           -2.87554131183704        2.07657072740467       -0.95561311776917
H           -2.91912730004867        2.03400832084408        0.81198092715467
H           -1.21223040644714       -3.18374551685561        0.87328299899448
H           -1.22896590179612       -3.21702765004829       -0.91370388238589
H           -2.60272324181931       -2.53927047325202       -0.01934459025731
H            1.31335298627373       -2.93108027677626       -0.15241274681178
25
 energy: 9.115049660526 xtb: 6.6.1 (8d0f1dd)
C            3.35092356370671        1.19705647179224        0.20443309030244
N            2.34618535197450        0.12802160036586        0.11460450142458
C            2.59330650904353       -1.24140007789208       -0.00719703863006
N            1.39888700538854       -1.92463479160328       -0.10122368555932
C            0.38460906563033       -1.04508453351667       -0.05086424695821
C            0.92823965342645        0.24029774070847        0.03227149782514
C            0.09094417120980        1.37602621409752       -0.04311086226001
O            0.42813018576278        2.55570496853533       -0.09370947008957
N           -1.30351253499540        1.02182901830539       -0.05318303683211
C           -2.26221039547947        2.11466447316996       -0.05362385073462
C           -1.85237353807777       -0.22231531311507       -0.03538023664308
O           -3.05065101923354       -0.41595378864871       -0.01096825140707
N           -0.95960803327111       -1.30727511162086       -0.05895352643389
C           -1.51407666007907       -2.64670552279098       -0.02985055704871
H            3.91221562908776        1.67321389233168        1.20519897527435
H            4.22088626342969        0.83872640718208       -0.33983990116066
H            2.88032390597287        2.06322065800800       -0.25544695450001
H            3.53365138401055       -1.69991263178885       -0.22042421338581
H           -1.69726853777556        3.04311662038717       -0.01957115354864
H           -2.87501154428370        2.07681287891906       -0.95490324011479
H           -2.91935914504752        2.03294323748938        0.81276857995167
H           -1.20952183575966       -3.18366794793766        0.87157491351513
H           -1.22641840910965       -3.21660231584325       -0.91520717005463
H           -2.60094739073027       -2.54035658262419       -0.02080145538995
H            1.31487102313557       -2.92869696173853       -0.14955881139484
25
 energy: 8.416374131973 xtb: 6.6.1 (8d0f1dd)
C            3.34865817747353        1.19605439007300        0.20184236519635
N            2.34383578017189        0.12847463946060        0.11711533076991
C            2.59419660732601       -1.24075206802441        0.00795014340998
N            1.39920372383708       -1.92368300257957       -0.10020675539368
C            0.38452900651348       -1.04434892803900       -0.05044308059462
C            0.92693321927677        0.24073261822236        0.03504970963368
C            0.09127388523917        1.37686549078758       -0.04230629806712
O            0.42909581172084        2.55682379144428       -0.09269375878925
N           -1.30279439250470        1.02181337156258       -0.05225756048080
C           -2.26160234282249        2.11490865466246       -0.05235836249799
C           -1.85194901070639       -0.22183130097217       -0.03562220243242
O           -3.05026846685771       -0.41519768977878       -0.01090609456517
N           -0.95908883242468       -1.30706255755209       -0.06082430232682
C           -1.51237874824822       -2.64681905445335       -0.03208757254440
H            3.90268561830909        1.67267995357420        1.20149424834929
H            4.21887373656596        0.82969848408320       -0.33306126810252
H            2.88384970779133        2.05851430100040       -0.26713798799475
H            3.53153746759169       -1.69253677675825       -0.23369443130085
H           -1.69668414649479        3.04354196569273       -0.01801907301922
H           -2.87409554562246        2.07745681981235       -0.95388316636905
H           -2.91874318239375        2.03308828241386        0.81395259032374
H           -1.20694450376286       -3.18395719190104        0.86901948001842
H           -1.22329600613972       -3.21588337734712       -0.91769577678563
H           -2.59922777217790       -2.54175641447077       -0.02311419827146
H            1.31461487627522       -2.92779579874100       -0.14307808201833
25
 energy: 7.654379557458 xtb: 6.6.1 (8d0f1dd)
C            3.34646083676777        1.19536901442504        0.19999284189299
N            2.34138748677293        0.12900720272553        0.12072518896332
C            2.59629416190125       -1.24261658867812        0.03100046444562
N            1.39901673685128       -1.92376992104233       -0.09890498727562
C            0.38516453724986       -1.04398002866315       -0.05116417121588
C            0.92605371951907        0.24084285559244        0.03560350987593
C            0.09125198564110        1.37696818313450       -0.04204509637759
O            0.43045638873591        2.55732852635498       -0.09021970677942
N           -1.30234627141734        1.02198244044056       -0.05126098386151
C           -2.26095777769945        2.11551884905969       -0.05074911386418
C           -1.85126896867441       -0.22113273934561       -0.03635461542135
O           -3.04976977205138       -0.41502183561338       -0.01161365219320
N           -0.95828959729344       -1.30666032189161       -0.06347320045860
C           -1.51063600389045       -2.64663607155582       -0.03491375329072
H            3.89312985276621        1.67448860774184        1.19595710521115
H            4.21754841525746        0.82202295327019       -0.32750926252994
H            2.88584561681316        2.05394894030303       -0.27892936597660
H            3.52852699974235       -1.68457106933342       -0.25216672685641
H           -1.69544252922164        3.04391254753962       -0.01629660303656
H           -2.87345390919769        2.07840807313204       -0.95223453982291
H           -2.91770659470404        2.03376658328308        0.81575669272757
H           -1.20440672108929       -3.18412217348523        0.86588622972378
H           -1.22031216543318       -3.21508173700118       -0.92085034230880
H           -2.59750280321307       -2.54291020551799       -0.02582462363792
H            1.31317104380342       -2.92803348270271       -0.13337739178586
25
 energy: 7.125835202380 xtb: 6.6.1 (8d0f1dd)
C            3.34561500857159        1.19518667412285        0.20032119542842
N            2.34011740693499        0.12899091618918        0.12329359007418
C            2.59890774886202       -1.24678366412104        0.05293281028424
N            1.39855330785848       -1.92508143226014       -0.09789825823658
C            0.38640859261923       -1.04426207497958       -0.05331603757398
C            0.92662520217024        0.24021834027026        0.03270956124811
C            0.09073838604629        1.37625014329130       -0.04235836292022
O            0.43148460708917        2.55658422590403       -0.08772786818624
N           -1.30207570509662        1.02242352140851       -0.05092011842764
C           -2.26051458962126        2.11617721345964       -0.04990214558867
C           -1.85046086315724       -0.22064022815526       -0.03736898351933
O           -3.04909659412584       -0.41549972445625       -0.01282484245201
N           -0.95724506004985       -1.30615501227075       -0.06581502866590
C           -1.50970806641619       -2.64610208258587       -0.03678117447487
H            3.88927910479074        1.67599372821428        1.19075978489521
H            4.21638753050956        0.82184654059689       -0.32755379782376
H            2.88496537019361        2.05166876937257       -0.28162805425566
H            3.52459536755118       -1.67881034071474       -0.26895579225017
H           -1.69442859008074        3.04420594774613       -0.01557220352305
H           -2.87337922019557        2.07898597630932       -0.95103907673746
H           -2.91671011877753        2.03448989473325        0.81696268581348
H           -1.20325320323039       -3.18365725575760        0.86401355748010
H           -1.21930631663727       -3.21470688463795       -0.92277705175498
H           -2.59661434129796       -2.54280454477697       -0.02733328795711
H            1.31132970342579       -2.92949004473008       -0.12418720472887
25
 energy: 7.087751284770 xtb: 6.6.1 (8d0f1dd)
C            3.34639107546311        1.19567830632972        0.20298052743819
N            2.34056653102869        0.12841652614974        0.12387267770587
C            2.60068046469053       -1.25084453989873        0.06339730035552
N            1.39814307965650       -1.92670075045049       -0.09742596066323
C            0.38748739448812       -1.04486030277884       -0.05559894156712
C            0.92843692520071        0.23921991354675        0.02839240165416
C            0.09010549518313        1.37524966049534       -0.04289406459068
O            0.43157647176588        2.55507883502132       -0.08687536216115
N           -1.30179663011109        1.02285186126480       -0.05144620964925
C           -2.26038299165653        2.11637677786251       -0.05016040469843
C           -1.84989737826699       -0.22070901475296       -0.03808117940911
O           -3.04855361350549       -0.41606907847359       -0.01357500412702
N           -0.95643771555747       -1.30576864809469       -0.06671413107419
C           -1.50995120501546       -2.64553430103417       -0.03680767636649
H            3.89157290854913        1.67706742741255        1.19005010753025
H            4.21697155092092        0.82654381795434       -0.33163782306983
H            2.88180962209797        2.05302740423546       -0.27651278162934
H            3.52107467552919       -1.67730244749256       -0.27852105562992
H           -1.69442404604082        3.04434993109254       -0.01601668441667
H           -2.87371615504742        2.07874781137392       -0.95090287629782
H           -2.91626338313995        2.03450894375206        0.81695602182754
H           -1.20390095395470       -3.18273136432971        0.86430300368460
H           -1.22058857697636       -3.21492973018309       -0.92248707692225
H           -2.59688255851470       -2.54151313308100       -0.02699576216603
H            1.31019368114949       -2.93112530374919       -0.12026514961030
25
 energy: 7.277122194287 xtb: 6.6.1 (8d0f1dd)
C            3.34766022133874        1.19615995711628        0.20616961494499
N            2.34167587817218        0.12762425574067        0.12390667459617
C            2.60118147419738       -1.25303294469332        0.06516746347870
N            1.39793705178105       -1.92759838382416       -0.09666907409284
C            0.38782755024441       -1.04517096907988       -0.05638225860469
C            0.93025173010681        0.23846110425685        0.02625324569175
C            0.08977028019331        1.37468296508295       -0.04329015904074
O            0.43110289827164        2.55389232860675       -0.08809342861952
N           -1.30128949936597        1.02303577684789       -0.05251594023844
C           -2.26034090502011        2.11607065835093       -0.05153144848384
C           -1.84968601634337       -0.22116363253209       -0.03825496500025
O           -3.04826264343526       -0.41608621128265       -0.01362788789581
N           -0.95610187885831       -1.30557805660614       -0.06629931642901
C           -1.51069602935452       -2.64523429714856       -0.03555265032106
H            3.89712547479178        1.67587660737521        1.19235059597545
H            4.21689239916460        0.83286134253017       -0.33643742204310
H            2.87892842781881        2.05559245175659       -0.26684955002722
H            3.51888986693927       -1.67812786152268       -0.28584518779959
H           -1.69514286380685        3.04438183866834       -0.01755437367046
H           -2.87379936767956        2.07780732219711       -0.95217323750128
H           -2.91638246394631        2.03395155348139        0.81551283259953
H           -1.20531698058598       -3.18175615456159        0.86606443156296
H           -1.22237569947155       -3.21553214266667       -0.92066663958219
H           -2.59761827739100       -2.54012558233933       -0.02570043566306
H            1.30998404017523       -2.93196332358204       -0.12094698768918
25
 energy: 7.363500744382 xtb: 6.6.1 (8d0f1dd)
C            3.34793770945577        1.19629968613356        0.20723369416684
N            2.34220869243312        0.12717923100124        0.12364400057073
C            2.60110595422001       -1.25317813862263        0.06498226142234
N            1.39796761272916       -1.92758078955925       -0.09623668439772
C            0.38766613689210       -1.04504748453888       -0.05647925146042
C            0.93089827273749        0.23829091179722        0.02618382065971
C            0.08990089947551        1.37469885078784       -0.04372729348117
O            0.43095294703301        2.55366945854491       -0.08953700119177
N           -1.30076696361912        1.02297262362849       -0.05309931050910
C           -2.26018382976978        2.11574066291058       -0.05215240906744
C           -1.84965741644320       -0.22148526217908       -0.03809622218801
O           -3.04822356436929       -0.41561245812680       -0.01297550598560
N           -0.95609326668963       -1.30556694821593       -0.06600190586337
C           -1.51098292021655       -2.64526407713781       -0.03484643527796
H            3.89907264624161        1.67447316678251        1.19480523273448
H            4.21695540956500        0.83451266221625       -0.33794402390222
H            2.87764025165870        2.05701236081310       -0.26330267300002
H            3.51772986959412       -1.67823759292277       -0.28866823259634
H           -1.69558385924304        3.04439484788271       -0.01819219853238
H           -2.87358318264397        2.07725596951716       -0.95286969253062
H           -2.91640928964354        2.03338208812305        0.81476549651954
H           -1.20578074356085       -3.18139923216725        0.86698608767812
H           -1.22294521249447       -3.21584622115647       -0.91969976361783
H           -2.59788587260760       -2.53973196431693       -0.02503009813971
H            1.31027438720183       -2.93190374902282       -0.12270799586275
25
 energy: 7.385294556497 xtb: 6.6.1 (8d0f1dd)
C            3.34753524921203        1.19611295085287        0.20729908384478
N            2.34249364702222        0.12667170924960        0.12309358677825
C            2.60104760667867       -1.25291209544296        0.06599537512797
N            1.39795377494047       -1.92731657960724       -0.09521616073903
C            0.38734047615829       -1.04470543911075       -0.05631395494056
C            0.93114293187838        0.23828068467780        0.02703978017930
C            0.09027553728703        1.37488217396275       -0.04431496690254
O            0.43108885552191        2.55374997975891       -0.09142928030126
N           -1.30006262248756        1.02279735163328       -0.05358599401421
C           -2.25981642166818        2.11541629996334       -0.05276170284455
C           -1.84956366273381       -0.22178293166034       -0.03779748984914
O           -3.04815705981961       -0.41479107373954       -0.01203141312277
N           -0.95613456476048       -1.30560258995399       -0.06580088185655
C           -1.51101284342405       -2.64540798201209       -0.03435819445772
H            3.90069593428409        1.67181092835083        1.19709590758437
H            4.21585480256282        0.83604771352899       -0.33934414405405
H            2.87634239384161        2.05794955585621       -0.25966447632230
H            3.51624352956358       -1.67761316949059       -0.29214478479609
H           -1.69574480283301        3.04441667666733       -0.01872322061602
H           -2.87301171840881        2.07683701039625       -0.95367303916889
H           -2.91627981003975        2.03281975020072        0.81395255626504
H           -1.20583356293548       -3.18121357371917        0.86762605541790
H           -1.22283585755924       -3.21609883033295       -0.91901246463257
H           -2.59788958564013       -2.53974891148222       -0.02468024314488
H            1.31054244129537       -2.93157100637505       -0.12421603728718
25
 energy: 7.377152731860 xtb: 6.6.1 (8d0f1dd)
C            3.34706731974838        1.19599254002407        0.20652013794924
N            2.34231777914642        0.12676701911200        0.12268874371137
C            2.60119431590242       -1.25282623413352        0.06656753534663
N            1.39789628117784       -1.92731618480426       -0.09493235577189
C            0.38738716497442       -1.04468866469979       -0.05625770403927
C            0.93081627181276        0.23838235542246        0.02719046467469
C            0.09033610213750        1.37492424781759       -0.04437742272814
O            0.43126151831983        2.55389509364575       -0.09116816404745
N           -1.30016682107283        1.02278713605445       -0.05335336411081
C           -2.25978727654083        2.11554525884862       -0.05243290957763
C           -1.84951141855377       -0.22169089903654       -0.03779571385638
O           -3.04814786535854       -0.41482932761313       -0.01202944001963
N           -0.95612670035662       -1.30563859163125       -0.06591024188270
C           -1.51081456521374       -2.64543876602590       -0.03471063457363
H            3.89983117281020        1.67222927335809        1.19708678854381
H            4.21601664302085        0.83493192896172       -0.33872455521527
H            2.87630213083752        2.05774815460148       -0.26154014974838
H            3.51616852086168       -1.67734005491134       -0.29140162367278
H           -1.69547052899747        3.04440998655575       -0.01831679712231
H           -2.87294854570628        2.07715341840295       -0.95335404513699
H           -2.91620024849944        2.03296671942781        0.81429329044319
H           -1.20552548092813       -3.18143325485235        0.86715301797747
H           -1.22238575999542       -3.21594411713088       -0.91949746454643
H           -2.59769222396010       -2.54001680076987       -0.02506181729830
H            1.31039688236978       -2.93154163445189       -0.12360167915111
