25
 energy: 0.000000000000 xtb: 6.6.1 (8d0f1dd)
C            3.23720163006194        1.16630919979326        0.08434469647475
N            2.29877817382611        0.07527477071623        0.03981603040599
C            2.58028210190900       -1.21425402444508        0.03006176031096
N            1.43813958087363       -1.93419271955128        0.00098261760884
C            0.39035688448383       -1.05887472636071       -0.00790371836672
C            0.93510056364412        0.21347819449412        0.01709077491437
C            0.09450143893243        1.40504303904423       -0.00410947031874
O            0.49712751527797        2.54126714362870       -0.00342325688240
N           -1.25076640035757        1.06271879480407       -0.03085478223738
C           -2.21907211982101        2.15522099834493       -0.05001256985998
C           -1.81739487048744       -0.20012725993278       -0.04692818574614
O           -2.99983886758376       -0.37846417018721       -0.07008878229737
N           -0.92618586207120       -1.30210215599479       -0.03682761578324
C           -1.46982264913417       -2.64643102187190       -0.06029820460571
H            3.71247264356769        1.21471455160235        1.06488849150277
H            4.00791497605742        1.03430808813993       -0.67357694370751
H            2.69910007168542        2.09770118228144       -0.09130154882931
H            3.56654120610678       -1.63682992603973        0.04233140067262
H           -1.67107961066214        3.09322851271934       -0.02552706933167
H           -2.82428953597071        2.09428624779827       -0.95318082946668
H           -2.87644029173232        2.07745725625962        0.81450067533302
H           -1.17061996399332       -3.19584890659852        0.83242232437030
H           -1.14560257411436       -3.17511610292205       -0.95688275822323
H           -2.55549792440841       -2.55659984320617       -0.07459039797972
H            1.38130855184625       -2.94313852034425       -0.01389874181052
25
 energy: -1.339839748899 xtb: 6.6.1 (8d0f1dd)
C            3.23372073203995        1.17974677263462        0.08612413267065
N            2.29662096652315        0.08959464628993        0.03773626652431
C            2.59041582210843       -1.24306708623048        0.03035376075035
N            1.44039261675926       -1.99964793236496        0.00016850613015
C            0.40333247765370       -1.08260856666578       -0.00839910851246
C            0.92243113848257        0.21248378742282        0.01510777480417
C            0.09643416111862        1.40111139359170       -0.00468219636308
O            0.49285897924212        2.56825022642531       -0.00341287450134
N           -1.26659078910989        1.06605150063655       -0.03087067721895
C           -2.23204354490671        2.16364024986409       -0.05006770861127
C           -1.82224170821093       -0.18804345495205       -0.04712836956578
O           -3.01918557548635       -0.36851915044183       -0.07051857448322
N           -0.93262468545885       -1.29516157077062       -0.03681962496515
C           -1.46993579833077       -2.63036320543173       -0.05980558425182
H            3.71608686845416        1.23016271119972        1.06644319984595
H            4.00476274830261        1.04675206590500       -0.67455749050457
H            2.70219644368769        2.11486711246927       -0.08939636644904
H            3.57293062411146       -1.64637631075333        0.04352451177724
H           -1.68205277431950        3.10237848620669       -0.02545999175101
H           -2.84052305453421        2.11067916524007       -0.95297957554249
H           -2.89346123729701        2.09380900268374        0.81346071615684
H           -1.15358561644186       -3.17220122422601        0.83269113488899
H           -1.12914535256031       -3.15141999478812       -0.95574341187583
H           -2.55482703685315       -2.54260990547125       -0.07380978304634
H            1.43624826296205       -3.07048011630132       -0.01492476975902
25
 energy: 6.859349237053 xtb: 6.6.1 (8d0f1dd)
C            3.22893214430095        1.18482438792905        0.08722064226111
N            2.29121552692590        0.09554138399980        0.03436811942446
C            2.59235514017849       -1.26480739641346        0.03132420674836
N            1.44043113460513       -2.05965515449863       -0.00023774117081
C            0.41385815636057       -1.10857182227646       -0.00913665242581
C            0.90804944336434        0.20236535044940        0.01269809680353
C            0.09726633363371        1.38660850530183       -0.00512245948144
O            0.48287549828075        2.56682457721398       -0.00307490490354
N           -1.28573478727397        1.07551409287192       -0.03082482556537
C           -2.24590677836250        2.17890324313055       -0.05015999884157
C           -1.82428655643863       -0.17090153338217       -0.04719769962235
O           -3.02581605426092       -0.35902203817282       -0.07097357488619
N           -0.93938219321623       -1.27968276553140       -0.03665360335799
C           -1.46968126407588       -2.60979805016174       -0.05920638406440
H            3.71688385555194        1.24218819088945        1.06669862049089
H            4.00118081349401        1.05891014220871       -0.67563654436641
H            2.70232494696373        2.12439687633665       -0.08672340815332
H            3.57781049070452       -1.64387193051672        0.04525141524258
H           -1.69443978703639        3.11786169625928       -0.02516763145533
H           -2.85762188201939        2.13136127526174       -0.95242981492474
H           -2.91159524371428        2.11424853671696        0.81173104346406
H           -1.13671145250321       -3.14558294867342        0.83204329585809
H           -1.11319921975008       -3.12485730789517       -0.95362337514382
H           -2.55415834574168       -2.53233148766695       -0.07282415691917
H            1.51756474796536       -3.19143722120833       -0.01530876886355
25
 energy: 12.280001350632 xtb: 6.6.1 (8d0f1dd)
C            3.22698751911879        1.18419586235968        0.08734391406916
N            2.29012147879122        0.09454255284044        0.03227751789096
C            2.58988601444659       -1.27231327899777        0.03213637165270
N            1.43845023742053       -2.07922550416629       -0.00013777867646
C            0.41667713061805       -1.11801603242779       -0.00952774526000
C            0.90383303496312        0.19585688771642        0.01172491317584
C            0.09783756670338        1.38086548738964       -0.00507918335154
O            0.47888938678665        2.56067433389149       -0.00276163881356
N           -1.29426788279142        1.08414488252280       -0.03077768169280
C           -2.25230917386421        2.18814286526994       -0.05030800128362
C           -1.82586832107524       -0.16279962434386       -0.04722177294108
O           -3.02643124496400       -0.35880475692944       -0.07133962460375
N           -0.94137968295150       -1.26907767803764       -0.03637958387648
C           -1.46859049224054       -2.60081593409524       -0.05879920244650
H            3.71501200428790        1.24443671626590        1.06673749265646
H            3.99922714068238        1.06355980658011       -0.67635720228239
H            2.70031512063671        2.12514625586364       -0.08536603753212
H            3.58024216925526       -1.64056155381544        0.04570509174840
H           -1.70142336782012        3.12715223924721       -0.02492975986046
H           -2.86464305659799        2.14078930344662       -0.95246092444174
H           -2.91931801459470        2.12338734938881        0.81085371036370
H           -1.12909054846099       -3.13363544369712        0.83181829077537
H           -1.10620140577739       -3.11298795236632       -0.95256474519465
H           -2.55326431848744       -2.53210786181401       -0.07218006004640
H            1.55752337385116       -3.24352031991978       -0.01537246388176
25
 energy: 14.440652564579 xtb: 6.6.1 (8d0f1dd)
C            3.22715059524666        1.18326003986280        0.08735390425583
N            2.29112771988620        0.09314057242921        0.03122989762861
C            2.58705546305912       -1.27349528010386        0.03290036914314
N            1.43561054402559       -2.08009158124218        0.00014807705984
C            0.41610260497809       -1.11853630599106       -0.00965655747509
C            0.90407650431304        0.19425805909149        0.01148765169766
C            0.09841677273653        1.38076868316777       -0.00506552778237
O            0.47762378509407        2.55857367164574       -0.00259625107805
N           -1.29625704720663        1.08811820193716       -0.03077743748647
C           -2.25393859047589        2.19076765109049       -0.05039673642441
C           -1.82725575529788       -0.16060131044710       -0.04724248932581
O           -3.02643112210304       -0.36039848041146       -0.07150261007146
N           -0.94187800106517       -1.26403905252249       -0.03612228819089
C           -1.46768714429826       -2.59851413733353       -0.05861014034863
H            3.71423560224177        1.24398952475861        1.06688831952550
H            3.99917208747929        1.06449785731678       -0.67644030803595
H            2.69964782822757        2.12430408459018       -0.08507554409701
H            3.57950713590449       -1.63860966063178        0.04520688866045
H           -1.70400513925964        3.12998946070440       -0.02484563147851
H           -2.86603927154625        2.14250782172367       -0.95270130008136
H           -2.92096906834249        2.12493380601152        0.81071614850134
H           -1.12655555960460       -3.13000295548093        0.83185786572138
H           -1.10387180777807       -3.10931517219015       -0.95229602618227
H           -2.55241265871789       -2.53386629792361       -0.07194497765650
H            1.56978919043958       -3.26261059787964       -0.01548140033168
25
 energy: 15.919343057233 xtb: 6.6.1 (8d0f1dd)
C            3.22767220568815        1.18285205376549        0.08737254785388
N            2.29268217900825        0.09193704700344        0.03037887032631
C            2.58454137759245       -1.27312887387219        0.03412563664218
N            1.43284389703880       -2.07560061309768        0.00059314221647
C            0.41468376723936       -1.11673129753409       -0.00978342072184
C            0.90539347792596        0.19455537898907        0.01140719037100
C            0.09902604811116        1.38212820703966       -0.00516215249105
O            0.47697465341628        2.55858414416486       -0.00251178983290
N           -1.29611405330869        1.08957477833366       -0.03080115732889
C           -2.25395619368369        2.19089224013800       -0.05042704625831
C           -1.82852401049890       -0.16036038610974       -0.04724897064713
O           -3.02662627863396       -0.36126880697921       -0.07155379771594
N           -0.94225927700207       -1.26135411904324       -0.03588500290655
C           -1.46705886802796       -2.59814517769203       -0.05854034940435
H            3.71392510513515        1.24363671981472        1.06706661257186
H            3.99973823423869        1.06485003231900       -0.67617449886067
H            2.69943976854189        2.12361969725566       -0.08518298194567
H            3.57790594768987       -1.63740114045644        0.04409704312601
H           -1.70518587860222        3.13062852176570       -0.02480994453474
H           -2.86601072560818        2.14220413915792       -0.95279558754368
H           -2.92098013741894        2.12451206856447        0.81071599555282
H           -1.12533814485391       -3.12855842605365        0.83195812145208
H           -1.10269707220488       -3.10773802281590       -0.95234654050186
H           -2.55172722261154       -2.53509650362015       -0.07189037510417
H            1.57386586876515       -3.27556305886533       -0.01556764816757
25
 energy: 16.746879954419 xtb: 6.6.1 (8d0f1dd)
C            3.22787392566070        1.18324207608217        0.08739553355445
N            2.29356517836830        0.09168465796613        0.02994349048690
C            2.58377088700874       -1.27244950978202        0.03554222689294
N            1.43197017983930       -2.07118280843557        0.00098026889844
C            0.41384921268275       -1.11502429045758       -0.00993259498849
C            0.90626547794528        0.19594469235312        0.01140107568489
C            0.09928355012459        1.38343005922633       -0.00527708009536
O            0.47686486010632        2.55998268866239       -0.00254463019174
N           -1.29521962762180        1.08903649265482       -0.03082239662981
C           -2.25336089573563        2.19002205758136       -0.05041068777138
C           -1.82897865341035       -0.16093852439533       -0.04723688206685
O           -3.02694479719959       -0.36070812231235       -0.07150815694302
N           -0.94250517675028       -1.26127759353754       -0.03578779922919
C           -1.46693345526717       -2.59868064796083       -0.05857380506163
H            3.71385416694780        1.24393740344781        1.06720182519895
H            4.00024031737556        1.06514745805856       -0.67585190432377
H            2.69935776632032        2.12367426596352       -0.08540932986532
H            3.57703783568717       -1.63722876148234        0.04281223600728
H           -1.70516980317011        3.13016712171967       -0.02481420102107
H           -2.86556077421313        2.14146657124529       -0.95274976055665
H           -2.92045017914241        2.12375322483961        0.81075829467102
H           -1.12528960814404       -3.12878968302343        0.83196263543612
H           -1.10259021323943       -3.10786481132717       -0.95245815925913
H           -2.55154046951269       -2.53513970298682       -0.07195307628541
H            1.57282496327599       -3.28317571192776       -0.01563322639487
25
 energy: 17.361592917703 xtb: 6.6.1 (8d0f1dd)
C            3.22784035354499        1.18393743795175        0.08743268953794
N            2.29373441278935        0.09209000693271        0.02980501282159
C            2.58409951701283       -1.27187754152288        0.03720595060250
N            1.43251358093156       -2.06843097492229        0.00130025880553
C            0.41369791288950       -1.11405814502366       -0.01013082289814
C            0.90644707938356        0.19752552233965        0.01139821069661
C            0.09921877970627        1.38429827185209       -0.00536592963957
O            0.47697181538161        2.56150414275244       -0.00265478445170
N           -1.29457821183971        1.08816263402318       -0.03084100443624
C           -2.25298407123031        2.18939377498185       -0.05039121756854
C           -1.82884121368822       -0.16138993390125       -0.04722757856518
O           -3.02714006436884       -0.35965132006371       -0.07143053084497
N           -0.94261196310323       -1.26220052188807       -0.03580968789737
C           -1.46703327590338       -2.59917594910224       -0.05863556395699
H            3.71386015507201        1.24451668488690        1.06729707289100
H            4.00050494602544        1.06547421279472       -0.67561525688459
H            2.69933867841139        2.12416095730645       -0.08556277567665
H            3.57696690581433       -1.63737580266801        0.04133548831083
H           -1.70480354820299        3.12965734731583       -0.02483853676798
H           -2.86528641180090        2.14102107883387       -0.95269234373203
H           -2.92009400029578        2.12333714596592        0.81079964829575
H           -1.12570213140000       -3.12950240583316        0.83191570740938
H           -1.10292875951520       -3.10855756355241       -0.95251972147508
H           -2.55163683391624       -2.53464773866741       -0.07203300428482
H            1.57066101623817       -3.28918271862027       -0.01570738414399
25
 energy: 17.679613088274 xtb: 6.6.1 (8d0f1dd)
C            3.22777494721010        1.18436295597300        0.08747566066537
N            2.29340379792743        0.09265090484670        0.02993853378236
C            2.58473544405297       -1.27153959789059        0.03859745906681
N            1.43354458544502       -2.06794905467773        0.00147802157422
C            0.41397056144491       -1.11398958808865       -0.01031611587902
C            0.90612818080263        0.19832383147869        0.01137110869655
C            0.09898530697525        1.38451298027655       -0.00540754838443
O            0.47711157883330        2.56212878710106       -0.00276302216356
N           -1.29455259985697        1.08785439552734       -0.03085858692945
C           -2.25306984617910        2.18940193895622       -0.05039008962249
C           -1.82847912365751       -0.16139849617769       -0.04723480538262
O           -3.02708659196618       -0.35910985733283       -0.07137514023751
N           -0.94256171230489       -1.26294575854537       -0.03591782981649
C           -1.46715105395320       -2.59924960772024       -0.05867787405835
H            3.71393218491737        1.24486029903080        1.06732685582001
H            4.00049793219268        1.06559067288158       -0.67556270148656
H            2.69945653505816        2.12460725031694       -0.08557028251987
H            3.57734668840995       -1.63737528998371        0.04011060413459
H           -1.70458068875675        3.12951749784229       -0.02486374855325
H           -2.86534220640928        2.14103758250734       -0.95267931983545
H           -2.92012004589503        2.12338614103904        0.81081305483734
H           -1.12606975090485       -3.12992360109425        0.83188386955674
H           -1.10326737061081       -3.10905038344922       -0.95252146793084
H           -2.55179228271828       -2.53423245173779       -0.07207168053365
H            1.56940019787928       -3.29244294890745       -0.01575105865315
25
 energy: 17.827615365638 xtb: 6.6.1 (8d0f1dd)
C            3.22778519543522        1.18450090600754        0.08753137936703
N            2.29292220576106        0.09314869956808        0.03027186949375
C            2.58527517827902       -1.27122297885209        0.04020014275635
N            1.43456149746061       -2.06843943595157        0.00162234433726
C            0.41431832912725       -1.11431433502947       -0.01054798965241
C            0.90567472313663        0.19848721604932        0.01128907321689
C            0.09872423836409        1.38441862615991       -0.00544849402829
O            0.47724381142697        2.56211346782179       -0.00285909444407
N           -1.29485094096725        1.08800908624086       -0.03088977080867
C           -2.25338408279349        2.18973301838765       -0.05040232996977
C           -1.82814948295371       -0.16116514433150       -0.04726335346042
O           -3.02689239068995       -0.35913197443581       -0.07132797474093
N           -0.94241959890316       -1.26331824810436       -0.03610696404078
C           -1.46722314388441       -2.59908523970645       -0.05871217554175
H            3.71406268909363        1.24494274745578        1.06732223966610
H            4.00036134535419        1.06546813653272       -0.67561972733340
H            2.69970519434236        2.12490244870238       -0.08550312522491
H            3.57778520444256       -1.63714543477539        0.03870264640934
H           -1.70454873515300        3.12961875566146       -0.02488473977159
H           -2.86556157891996        2.14127071872580       -0.95269534652943
H           -2.92033545541757        2.12363420349138        0.81080976176630
H           -1.12628401184568       -3.13002324459515        0.83188075619056
H           -1.10349967085296       -3.10929565485834       -0.95250886697676
H           -2.55190505143123       -2.53402780893001       -0.07208253744488
H            1.56884919952499       -3.29404992906248       -0.01574382708821
