25
 energy: 0.000000000000 xtb: 6.6.1 (8d0f1dd)
C            3.23720163006194        1.16630919979326        0.08434469647475
N            2.29877817382611        0.07527477071623        0.03981603040599
C            2.58028210190900       -1.21425402444508        0.03006176031096
N            1.43813958087363       -1.93419271955128        0.00098261760884
C            0.39035688448383       -1.05887472636071       -0.00790371836672
C            0.93510056364412        0.21347819449412        0.01709077491437
C            0.09450143893243        1.40504303904423       -0.00410947031874
O            0.49712751527797        2.54126714362870       -0.00342325688240
N           -1.25076640035757        1.06271879480407       -0.03085478223738
C           -2.21907211982101        2.15522099834493       -0.05001256985998
C           -1.81739487048744       -0.20012725993278       -0.04692818574614
O           -2.99983886758376       -0.37846417018721       -0.07008878229737
N           -0.92618586207120       -1.30210215599479       -0.03682761578324
C           -1.46982264913417       -2.64643102187190       -0.06029820460571
H            3.71247264356769        1.21471455160235        1.06488849150277
H            4.00791497605742        1.03430808813993       -0.67357694370751
H            2.69910007168542        2.09770118228144       -0.09130154882931
H            3.56654120610678       -1.63682992603973        0.04233140067262
H           -1.67107961066214        3.09322851271934       -0.02552706933167
H           -2.82428953597071        2.09428624779827       -0.95318082946668
H           -2.87644029173232        2.07745725625962        0.81450067533302
H           -1.17061996399332       -3.19584890659852        0.83242232437030
H           -1.14560257411436       -3.17511610292205       -0.95688275822323
H           -2.55549792440841       -2.55659984320617       -0.07459039797972
H            1.38130855184625       -2.94313852034425       -0.01389874181052
25
 energy: -2.020908402387 xtb: 6.6.1 (8d0f1dd)
C            3.26997713374455        1.16023428940734        0.09426406618143
N            2.32240360947038        0.08878944704179        0.04291245706891
C            2.60768363548497       -1.23992990394080        0.03002375331234
N            1.43341823872546       -1.94187122896780       -0.00135279705158
C            0.40639282829177       -1.05223230342401       -0.00681009986433
C            0.94362914764848        0.22478785613438        0.01963674166209
C            0.11394820269781        1.40241380686838       -0.00282904510476
O            0.52047457874235        2.56457402750045        0.01001399497917
N           -1.25603620950358        1.06496438260505       -0.04933149667999
C           -2.24638625454712        2.14818107744715       -0.07752702017060
C           -1.81238504978931       -0.18912858631787       -0.04970570654741
O           -3.00827117290329       -0.37194138349551       -0.07292152598797
N           -0.92447689407763       -1.29102165767528       -0.03518853623593
C           -1.46515889954075       -2.63177173270191       -0.05919843857639
H            3.74205973253976        1.20400511124590        1.07926866595323
H            4.04305009640632        1.01371564739123       -0.66181438367067
H            2.73578720344398        2.09001020538624       -0.08884653352283
H            3.58390212520049       -1.67056566604880        0.03778918504919
H           -1.68609225414801        3.08730557386602       -0.05440017663332
H           -3.02788850698337        2.08771202334913       -0.88063011710913
H           -2.89656739180902        2.07153181157028        0.77111616333302
H           -1.16343195620999       -3.18390593336776        0.83283079709511
H           -1.13724582938276       -3.16212018798651       -0.95537655507868
H           -2.55018832785999       -2.53922128533984       -0.07434535393980
H            1.36361688229471       -2.94548678837521       -0.02054414231380
25
 energy: 8.599785620449 xtb: 6.6.1 (8d0f1dd)
C            3.31882247661266        1.13944768698052        0.10922204315433
N            2.34729138958116        0.09660727020458        0.04726118427744
C            2.62933591944589       -1.26374010504260        0.02972781812737
N            1.42649325353112       -1.94095943187097       -0.00558480750596
C            0.42372681454053       -1.03953793225369       -0.00711008334643
C            0.95317672675428        0.24187350749208        0.02304335041907
C            0.13299496505755        1.40324210681148       -0.00384649952174
O            0.53662525515473        2.57785329394057        0.03630920850096
N           -1.27032041659990        1.07870002313353       -0.09004806966887
C           -2.29498531006406        2.14190473724459       -0.11049552335420
C           -1.80077195724055       -0.17129274074311       -0.06355688728626
O           -3.00168517779779       -0.36494083068736       -0.07656370375190
N           -0.91901673526597       -1.27037201052185       -0.03427093394555
C           -1.45511100587614       -2.60857154641535       -0.05664077343938
H            3.78682002360916        1.18088839518038        1.09890177248535
H            4.10031521810361        0.97431805416142       -0.63797240438859
H            2.80492821883085        2.07735990268297       -0.08515061076480
H            3.59557571682592       -1.70541566470607        0.02898369107218
H           -1.72852060119275        3.08172188957844       -0.12137326725085
H           -3.28640504295151        2.05657528434615       -0.78127237123374
H           -2.91572211517071        2.06363574661009        0.74959269467955
H           -1.15249795027411       -3.16336777844286        0.83492344136759
H           -1.12477836177632       -3.14122691886548       -0.95221170538754
H           -2.53961624535209       -2.51369476890001       -0.07305039980440
H            1.34553960945070       -2.94197956774533       -0.03178326728629
25
 energy: 15.788714232858 xtb: 6.6.1 (8d0f1dd)
C            3.36093716918860        1.11511851665697        0.12106475250658
N            2.36141444990093        0.09696339482215        0.04896030305516
C            2.63442746266335       -1.27213017059898        0.02742968414451
N            1.42430642864001       -1.93478845327310       -0.01210567124016
C            0.43247320760357       -1.02722356732307       -0.00973563498205
C            0.96015964858869        0.25660347333917        0.02500871624309
C            0.13633947901342        1.41569046919481       -0.00228516321731
O            0.53538664026592        2.58948244965451        0.05679784857975
N           -1.28717689883054        1.09524390679353       -0.11916350673669
C           -2.35004822643048        2.13538540375676       -0.13079529379593
C           -1.79589365250776       -0.16025090923606       -0.07199952362614
O           -2.99615181137681       -0.36680746575854       -0.07548716234467
N           -0.91171453027769       -1.25299943832693       -0.03402649091093
C           -1.44468124856723       -2.59054878791387       -0.05374054727377
H            3.82329067610276        1.14980673108512        1.11486432833703
H            4.15100781970736        0.92783360313728       -0.61424018308628
H            2.87895057857405        2.06853015261070       -0.08355659208927
H            3.59705992936063       -1.72364085286551        0.01672944939284
H           -1.79809822271480        3.08230597596638       -0.18224270181214
H           -3.42844391343605        2.02107897272342       -0.73120333086064
H           -2.92540074756246        2.05918311898450        0.76144277330317
H           -1.14028798024777       -3.14309925023878        0.83849983982411
H           -1.11422925868528       -3.12273819257708       -0.94955267724402
H           -2.52912098044686       -2.49388783530449       -0.06892398838245
H            1.33770864941069       -2.93608264313675       -0.04470533163644
25
 energy: 17.025050014709 xtb: 6.6.1 (8d0f1dd)
C            3.38236146689865        1.09963676968847        0.12692484251628
N            2.36543650035479        0.09676701792828        0.04769194433289
C            2.63181984312921       -1.26954347828409        0.02539442321076
N            1.42492679022368       -1.92840163877450       -0.01752811574637
C            0.43422599347223       -1.01971584736743       -0.01304386576837
C            0.96238072313419        0.26482995078071        0.02540852085619
C            0.13397578641168        1.42563912494324        0.00146921815326
O            0.52865623959678        2.59437705550000        0.07003542375098
N           -1.29843372379643        1.10307067770286       -0.13128363106758
C           -2.38104293291963        2.13204234860353       -0.13902346332845
C           -1.79664772044679       -0.15763175026439       -0.07402794595685
O           -2.99460610456314       -0.37286933674352       -0.07029606815236
N           -0.90756703376592       -1.24463136393913       -0.03427882918327
C           -1.43800733082602       -2.58343584899997       -0.05155716268908
H            3.83825321543338        1.12853707576966        1.12413680292850
H            4.17646680425857        0.89515939767669       -0.59985807422180
H            2.92463569933458        2.06353557204911       -0.08493316205387
H            3.59411497828908       -1.72496184023791        0.00601688933135
H           -1.84455076641328        3.08397380028992       -0.21212122359912
H           -3.46967817175364        2.00316398787776       -0.71498616048242
H           -2.92964908372041        2.06477081792555        0.76747991800679
H           -1.13111071166633       -3.13288970066986        0.84120786726387
H           -1.10827404660388       -3.11454090892749       -0.94775118967148
H           -2.52266513042006       -2.48756227872179       -0.06461734475955
H            1.33719338429499       -2.93029100163360       -0.05342571752298
25
 energy: 15.700462948559 xtb: 6.6.1 (8d0f1dd)
C            3.38852983798095        1.09334748994625        0.12949148809742
N            2.36480799476827        0.09751103529302        0.04560618542126
C            2.62797740561642       -1.26407943404143        0.02570027008107
N            1.42559747274465       -1.92417566666978       -0.02057543261945
C            0.43275561629654       -1.01644973194710       -0.01639531238489
C            0.96163784229752        0.26825094758248        0.02397673249218
C            0.13173448847165        1.43036588780720        0.00252282409875
O            0.52249550397797        2.59583761285703        0.07934514858982
N           -1.30421334683083        1.10395727164964       -0.13661086290578
C           -2.39186137938171        2.13050424585441       -0.14155679506846
C           -1.79966267093443       -0.15847845478182       -0.07443534188776
O           -2.99581359307782       -0.37745334807730       -0.06580541187154
N           -0.90701028184673       -1.24223849037269       -0.03561640583174
C           -1.43524823856046       -2.58282073316303       -0.05088285987236
H            3.83875590422420        1.12035330908089        1.12916527444134
H            4.18389638708053        0.87947920363771       -0.59219196427764
H            2.94339829583095        2.06098781775798       -0.08696888345362
H            3.59094328036287       -1.71976367562728       -0.00047060436749
H           -1.86152601442099        3.08294146366557       -0.22898181376598
H           -3.46752891192933        1.99430636436038       -0.70851092518828
H           -2.92361440405992        2.07531397121900        0.77464489465329
H           -1.12618876036412       -3.13002387966100        0.84217163922096
H           -1.10569214880580       -3.11330908234410       -0.94711788742832
H           -2.52013403133036       -2.48897218647505       -0.06247328992280
H            1.33817841982622       -2.92636333537887       -0.05699677010269
25
 energy: 14.239401359510 xtb: 6.6.1 (8d0f1dd)
C            3.38837778979286        1.09207617205749        0.13099536877448
N            2.36314975476149        0.09889247228304        0.04344967069506
C            2.62521532820275       -1.25984271832151        0.02812871095718
N            1.42561442850666       -1.92208549807755       -0.02205043400514
C            0.43081000717601       -1.01552780766148       -0.01938527712620
C            0.95980844600131        0.26953241468314        0.02211636583692
C            0.13086531341890        1.43171023629471        0.00248418038191
O            0.51749884436340        2.59649509252172        0.08687413885508
N           -1.30716500098905        1.10178634143858       -0.14032313120673
C           -2.39324689645791        2.12974066070001       -0.14337641789307
C           -1.80264478288787       -0.16008090250145       -0.07454508363472
O           -2.99781642580173       -0.38047299461750       -0.06264529719141
N           -0.90809177220798       -1.24248841496866       -0.03746927114772
C           -1.43451607470540       -2.58439502784285       -0.05144930184690
H            3.83407725027668        1.11938784155654        1.13253940075022
H            4.18485917733045        0.87364325526471       -0.58701323186135
H            2.94899695693674        2.06053185696944       -0.08865794524160
H            3.58880755681757       -1.71466910727534       -0.00513108039005
H           -1.86374063933926        3.08090766582682       -0.24446732899057
H           -3.45841058171251        1.98662427516773       -0.69966987870915
H           -2.91041024944998        2.08878486770548        0.78250843258532
H           -1.12404010848694       -3.13033142963713        0.84176747787599
H           -1.10464307134789       -3.11459299152108       -0.94759702224739
H           -2.51952869298183       -2.49227537169668       -0.06233445636729
H            1.33838811071979       -2.92432228617603       -0.05771469270550
25
 energy: 13.567687359883 xtb: 6.6.1 (8d0f1dd)
C            3.38602709290244        1.09343839003292        0.13181970524278
N            2.36203307270573        0.09990095764986        0.04192854754404
C            2.62442542807548       -1.25858796509527        0.03184195048410
N            1.42534767395989       -1.92197245009607       -0.02218780933818
C            0.42981857917231       -1.01607789691363       -0.02102422471626
C            0.95834074672767        0.26944607409106        0.02103583084474
C            0.13119507970183        1.43089772261092        0.00271571961774
O            0.51451860964024        2.59654765549923        0.09062133573369
N           -1.30798573624941        1.09918632195530       -0.14215460771727
C           -2.39056987286536        2.12953366341177       -0.14524914124839
C           -1.80413983251001       -0.16130246752169       -0.07441376531055
O           -2.99915870448546       -0.38204328694886       -0.06101854118787
N           -0.90914487522649       -1.24380568738922       -0.03890580958294
C           -1.43479939657269       -2.58605105645886       -0.05267023244351
H            3.82941517331659        1.12186839323256        1.13434249475124
H            4.18374954028464        0.87457230267074       -0.58425483589992
H            2.94707444444482        2.06143526736782       -0.08926419981157
H            3.58822113514577       -1.71254824585788       -0.00865345274203
H           -1.85986434844917        3.07904324992959       -0.25625218039384
H           -3.45419900682781        1.98100156669463       -0.68954191961440
H           -2.89753582985003        2.10121094503494        0.78702727123534
H           -1.12411043632849       -3.13188199694205        0.84057152078311
H           -1.10454033504818       -3.11615685448576       -0.94876973653290
H           -2.51983141189430       -2.49449287665241       -0.06361060602940
H            1.33792787816628       -2.92413312364751       -0.05689941752041
25
 energy: 13.433951749565 xtb: 6.6.1 (8d0f1dd)
C            3.38361040641998        1.09542517880428        0.13231098896714
N            2.36168867108169        0.10007919364866        0.04124726829538
C            2.62492281127543       -1.25942153555001        0.03645163638922
N            1.42520684082453       -1.92282580049668       -0.02153650025326
C            0.42975338943011       -1.01714780913001       -0.02141916082380
C            0.95773161685374        0.26867377102469        0.02080971928877
C            0.13185885339698        1.42948036573539        0.00320684188346
O            0.51322140482247        2.59624419256351        0.09073865993371
N           -1.30770141861193        1.09744390179261       -0.14200341191635
C           -2.38767609194260        2.12951807595523       -0.14682090704534
C           -1.80436034906286       -0.16194215894864       -0.07404887833327
O           -2.99960171443357       -0.38274421349681       -0.06046887722222
N           -0.90952324046122       -1.24518009404359       -0.03974811603190
C           -1.43535835050288       -2.58707775301493       -0.05404387769406
H            3.82662297303272        1.12480543285308        1.13500938093527
H            4.18226014024624        0.87861066272175       -0.58345617490785
H            2.94216097522681        2.06253236125890       -0.08868384822097
H            3.58858426923836       -1.71278142359223       -0.01204522403506
H           -1.85567849031056        3.07762590185962       -0.26426721025882
H           -3.45420696222098        1.97747169645600       -0.68114420221207
H           -2.88816599474225        2.11096835299794        0.78906394408966
H           -1.12532807706513       -3.13352329905294        0.83913772690236
H           -1.10486298885258       -3.11714935297813       -0.95016521157275
H           -2.52036393335944       -2.49514961810169       -0.06545816673892
H            1.33741992765320       -2.92490742709383       -0.05563250327101
25
 energy: 13.488084819147 xtb: 6.6.1 (8d0f1dd)
C            3.38257370692206        1.09645344148423        0.13256008956489
N            2.36188294834250        0.09964890159416        0.04144356214820
C            2.62563940199142       -1.26068341120125        0.04051660101022
N            1.42525717525737       -1.92352612291505       -0.02082188490410
C            0.43010263242324       -1.01778523162117       -0.02113229441332
C            0.95792226638474        0.26802279529914        0.02110155279549
C            0.13210508378359        1.42871431173578        0.00352724955070
O            0.51325026159940        2.59597661050014        0.08909901499073
N           -1.30724284793691        1.09710947717796       -0.14057787976508
C           -2.38683172345345        2.12949270207695       -0.14738804744594
C           -1.80398374620725       -0.16203715998828       -0.07378150753027
O           -2.99939178148834       -0.38291467578273       -0.06069536149526
N           -0.90928446243761       -1.24580170856613       -0.04002527581168
C           -1.43564714121208       -2.58726399860699       -0.05486107991086
H            3.82639992015737        1.12594333948417        1.13490492809182
H            4.18136884771376        0.88174497473031       -0.58398826867384
H            2.93870293898955        2.06299189778211       -0.08754769544550
H            3.58903406696274       -1.71375959287706       -0.01522404737452
H           -1.85446006105259        3.07702982879281       -0.26761045019380
H           -3.45531726558800        1.97608387277532       -0.67769432425708
H           -2.88503743770520        2.11553298044042        0.78946423848581
H           -1.12632225929892       -3.13428034677509        0.83827154285887
H           -1.10511936896419       -3.11732640305063       -0.95101429438947
H           -2.52062906017988       -2.49475295440405       -0.06666236733934
H            1.33724257293298       -2.92558492591297       -0.05483010439933
25
 energy: 13.557569141832 xtb: 6.6.1 (8d0f1dd)
C            3.38170566290770        1.09743460549815        0.13310001822954
N            2.36236754834648        0.09865950064562        0.04260750149391
C            2.62671995713922       -1.26276000140813        0.04983204334715
N            1.42538073852553       -1.92438717178551       -0.01952462470640
C            0.43075750557819       -1.01841241111612       -0.02065570408849
C            0.95865253411387        0.26712727931811        0.02175554537412
C            0.13198786555156        1.42790849802583        0.00372347665407
O            0.51397030183291        2.59553687329747        0.08563928630737
N           -1.30657441058001        1.09730876810988       -0.13721348511553
C           -2.38693955551901        2.12942101900861       -0.14775628941453
C           -1.80324207450868       -0.16201734151553       -0.07357910345578
O           -2.99879313175181       -0.38312038317722       -0.06178287323228
N           -0.90857886980780       -1.24634464052773       -0.04054308599858
C           -1.43584312075570       -2.58718649797848       -0.05603496937531
H            3.82762025223979        1.12635553540623        1.13449555347926
H            4.18008690985039        0.88593274074865       -0.58549825572055
H            2.93426716148048        2.06329649096132       -0.08505240750786
H            3.58948975864553       -1.71519479940504       -0.02328511589704
H           -1.85451919677993        3.07635206868826       -0.27232840671599
H           -3.45732870377446        1.97388797270688       -0.67406824104040
H           -2.88246318892310        2.12163967557057        0.79021415830336
H           -1.12751710663059       -3.13491084120611        0.83707316052074
H           -1.10535638416251       -3.11728166416476       -0.95219357682195
H           -2.52079389716458       -2.49377587449123       -0.06831168353779
H            1.33715811208277       -2.92644079903759       -0.05357902493376
25
 energy: 13.507183105724 xtb: 6.6.1 (8d0f1dd)
C            3.38196116418947        1.09719067502392        0.13352219520459
N            2.36243877047974        0.09828187478330        0.04404109502079
C            2.62684257597551       -1.26330112821063        0.05875662707286
N            1.42532632606533       -1.92436815449487       -0.01885683061770
C            0.43092365456186       -1.01822012090880       -0.02103741628640
C            0.95910353848693        0.26701186332923        0.02194444481448
C            0.13130985410129        1.42789134988050        0.00351999581865
O            0.51463344833292        2.59524762043396        0.08419829152876
N           -1.30646378411139        1.09776164879294       -0.13510899864039
C           -2.38787901419004        2.12943305944427       -0.14741545654682
C           -1.80305417293209       -0.16204485408131       -0.07391589664194
O           -2.99852694299743       -0.38324959943308       -0.06304274600023
N           -0.90820555482593       -1.24617989264219       -0.04121203906586
C           -1.43561065115625       -2.58701296062745       -0.05639407259743
H            3.82922591328472        1.12536106118276        1.13424791553193
H            4.17957407922817        0.88619384479670       -0.58636601222689
H            2.93402225569304        2.06307678382032       -0.08373601727085
H            3.58895210329528       -1.71479878789943       -0.03189782678227
H           -1.85588619000648        3.07617651290797       -0.27404081620217
H           -3.45768297517766        1.97270209766701       -0.67377802293200
H           -2.88302271962840        2.12362355319509        0.79053206024469
H           -1.12723849394470       -3.13454618524241        0.83680933510590
H           -1.10522497375044       -3.11723996718985       -0.95245960790450
H           -2.52055845303571       -2.49352323635092       -0.06855587774817
H            1.33725490999852       -2.92643845600484       -0.05272042673168
25
 energy: 13.196124471940 xtb: 6.6.1 (8d0f1dd)
C            3.38250156284901        1.09621852914697        0.13497802802310
N            2.36182330387819        0.09801056583122        0.04905309388355
C            2.62661341574907       -1.26400880214117        0.09424771522245
N            1.42482737916991       -1.92406365821940       -0.01690808913981
C            0.43104390447737       -1.01743963204780       -0.02428023827244
C            0.95983340024111        0.26693353180557        0.02133255511662
C            0.12886270707586        1.42789746820654        0.00253447371656
O            0.51582992983702        2.59418534643064        0.08167330155190
N           -1.30623519506386        1.09851302515626       -0.13074448141696
C           -2.38941074114312        2.12963956070608       -0.14641692710302
C           -1.80297068720518       -0.16253331906630       -0.07547835843793
O           -2.99827308061907       -0.38358200688011       -0.06681474936578
N           -0.90754816217734       -1.24559474658875       -0.04437738723519
C           -1.43472697846826       -2.58687105586615       -0.05739022168746
H            3.83274126951402        1.12326279582706        1.13413760622434
H            4.17807304459407        0.88427162928826       -0.58745599710306
H            2.93526908027152        2.06241625302664       -0.08147636427226
H            3.58580147785134       -1.71098795143624       -0.06612416162782
H           -1.85825873377077        3.07563383671943       -0.27856431225144
H           -3.45791387728610        1.96950057302322       -0.67318306509087
H           -2.88333774934138        2.12837989578591        0.79227681841803
H           -1.12525805284533       -3.13296427925810        0.83626113784373
H           -1.10480007558784       -3.11779710257679       -0.95302401159926
H           -2.51969265324656       -2.49380742020563       -0.06865879297039
H            1.33742017918255       -2.92618443449522       -0.04856367627926
25
 energy: 13.188946015792 xtb: 6.6.1 (8d0f1dd)
C            3.38264840951961        1.09589870463337        0.13463724753845
N            2.36161938093482        0.09823913938444        0.04867657677993
C            2.62656907180031       -1.26361620697344        0.09432580169587
N            1.42480292377042       -1.92395795287683       -0.01743033285029
C            0.43104059443213       -1.01733670372401       -0.02514097508283
C            0.95976426232489        0.26699831202501        0.02049152212218
C            0.12887248358136        1.42809589067723        0.00235183425028
O            0.51554438152042        2.59411845947606        0.08263733637132
N           -1.30611756314752        1.09850286468908       -0.13209725989597
C           -2.38895753518660        2.12967189216401       -0.14593675810848
C           -1.80293420359568       -0.16253905519221       -0.07564280087205
O           -2.99825893742897       -0.38328491734384       -0.06615409404862
N           -0.90754693479027       -1.24536890491555       -0.04454982792162
C           -1.43463255525774       -2.58680089605917       -0.05698127578517
H            3.83224025795610        1.12344458161402        1.13408773664052
H            4.17841761136138        0.88269640040523       -0.58697623295061
H            2.93665566111209        2.06230519114732       -0.08276370667936
H            3.58434909993197       -1.70960413009262       -0.06557274140664
H           -1.85798129960158        3.07610601470003       -0.27489821356696
H           -3.45663005435625        1.97130526296067       -0.67541355428528
H           -2.88532337888485        2.12459163760990        0.79120681541275
H           -1.12477077521343       -3.13254268098257        0.83671612617816
H           -1.10488893272195       -3.11788490521718       -0.95256568114057
H           -2.51961246349202       -2.49393131295267       -0.06794259219086
H            1.33734516336764       -2.92607808298409       -0.04803105405681
25
 energy: 13.098762237520 xtb: 6.6.1 (8d0f1dd)
C            3.38251077745828        1.09556179150522        0.13451298815816
N            2.36105209247121        0.09874151143379        0.04859028671910
C            2.62662177198003       -1.26315126328678        0.10017607871377
N            1.42463502439998       -1.92383991580620       -0.01757012664965
C            0.43101518260891       -1.01723785113528       -0.02698792871177
C            0.95951864059434        0.26703294665061        0.01887312733643
C            0.12895282069581        1.42837099824462        0.00186295931046
O            0.51441257342652        2.59403537618638        0.08487582618485
N           -1.30589586822929        1.09822999670755       -0.13558990560577
C           -2.38779382428168        2.12964721212383       -0.14586879637424
C           -1.80292561207243       -0.16263644837194       -0.07598934553974
O           -2.99832606633461       -0.38281483918283       -0.06453936445392
N           -0.90754786586755       -1.24508120525580       -0.04535982610096
C           -1.43449542542718       -2.58678779629976       -0.05661897914375
H            3.83056286103813        1.12467090171434        1.13464651762244
H            4.17897813723683        0.87987803510040       -0.58520822808197
H            2.93865530876000        2.06215573933184       -0.08521315066552
H            3.58204574260994       -1.70708260851084       -0.07180732592319
H           -1.85683607623718        3.07683208689844       -0.27055206277251
H           -3.45488171298819        1.97363368267049       -0.67799782801949
H           -2.88633534935139        2.11917614186940        0.79049233579362
H           -1.12410250254708       -3.13185423370212        0.83725929655443
H           -1.10498377275928       -3.11827652629369       -0.95200617420847
H           -2.51949749395183       -2.49421645620881       -0.06716090899437
H            1.33687530470402       -2.92595867421071       -0.04578556900058
25
 energy: 13.050046496002 xtb: 6.6.1 (8d0f1dd)
C            3.38203064486927        1.09574365023865        0.13460077585819
N            2.36071934978597        0.09900788769996        0.04855157230361
C            2.62695900997338       -1.26324365959757        0.10566633646661
N            1.42451344533438       -1.92392183764867       -0.01703860935905
C            0.43105552341219       -1.01737184556372       -0.02789279521142
C            0.95935256603564        0.26693356110545        0.01783690906315
C            0.12948900105045        1.42842252964279        0.00143069581100
O            0.51320257589424        2.59408842323366        0.08677196948027
N           -1.30559517503300        1.09788409966785       -0.13929531785218
C           -2.38657230781192        2.12954483028930       -0.14647029377687
C           -1.80281874930915       -0.16258704906442       -0.07609454284756
O           -2.99830350731322       -0.38237895251624       -0.06235957809434
N           -0.90753715290783       -1.24506167879550       -0.04592602324251
C           -1.43460565169507       -2.58679787974580       -0.05652442518363
H            3.82866692814500        1.12657799719577        1.13536966132374
H            4.17942063287503        0.87864128267985       -0.58344585245908
H            2.93899303106204        2.06215622548160       -0.08715451121969
H            3.58127837944968       -1.70620549983543       -0.07914647301226
H           -1.85552695811866        3.07738837697255       -0.26744381630369
H           -3.45363304248980        1.97550058157653       -0.67924743969716
H           -2.88608205499192        2.11514154598643        0.78951643829424
H           -1.12430435012385       -3.13157795273716        0.83755577532408
H           -1.10508731568691       -3.11864633657003       -0.95169436820546
H           -2.51960570042978       -2.49418447463962       -0.06706359865692
H            1.33620554596013       -2.92602522288404       -0.04346859265574
