72
 energy: -99.288086988481 gnorm: 0.004211001332 xtb: 6.6.1 (8d0f1dd)
N           -1.93220763540456        2.84344459849622        2.31575907523549
C           -1.85943481883466        2.11300459265880        1.30358675248784
C           -2.96544820925089        1.92557124950591        0.30261976464713
C           -3.46441559609083        0.48963547816098        0.35617859926285
C           -4.34441243559045        0.02754784089865       -0.62499565358701
C           -4.83891792100393       -1.26477685820996       -0.60394672732574
O           -5.69908175490408       -1.78465599992450       -1.50816996596062
C           -6.24134222444887       -0.94421051268787       -2.49869394418920
C           -4.43616214781844       -2.15055434561380        0.42928825252811
O           -4.95809921445031       -3.39528846996525        0.36448127773313
C           -4.66971973116793       -4.30906109657383        1.39557805716485
C           -3.56671477473451       -1.68618606952345        1.40184541438786
C           -3.09019500206473       -0.38065846287486        1.36642940960026
C           -2.33297092120369        2.21244219167832       -1.08481636485970
C           -1.40517165525375        1.10025642251433       -1.60699591863599
C           -0.10008863708977        1.04105063431510       -0.91194317229278
N            0.50941243698056       -0.07617854313766       -0.49604122412442
C            1.90316005921416       -0.04299339405237       -0.13084521393224
C            2.80602620712093       -0.51050999676579       -1.29286972105068
C            4.24741775907504       -0.22045961850217       -0.99177222569428
C            4.80569622139716        0.99288578379989       -1.37483377871786
C            6.13351236215982        1.27574005013294       -1.09773883239878
C            6.89437348657225        0.33411360937374       -0.43403138752154
O            8.28873422879381        0.54933101520553       -0.16965686386080
C            8.71854029759462        1.86096202966147        0.31063846262524
C            6.35280869117152       -0.88574293380574       -0.01234741890751
O            7.21976379187045       -1.69940885125576        0.65444098491684
C            6.76437257672161       -2.96621670518408        1.08460006500021
C            5.02088933821818       -1.15119573069255       -0.29935449823720
C           -0.13629416315098       -1.36481820449191       -0.55254033210484
C           -4.17987502659722        2.87123868830660        0.53659457087655
C           -4.88128449457649        2.56279536972613        1.85740914048805
C           -3.80963439900509        4.35095760349336        0.48309938307222
H           -4.65639563850929        0.69582812297795       -1.41013947278989
H           -6.77111579713165       -0.09433963067746       -2.05765841922737
H           -6.94782765972585       -1.56135643957074       -3.05028718368047
H           -5.47025117312970       -0.57917259575145       -3.18540158510292
H           -4.99589036815161       -3.93181589331615        2.36942937131214
H           -5.22936598084716       -5.21008230418175        1.15217818438892
H           -3.60147037716596       -4.54674613263781        1.43519611975332
H           -3.25917032171989       -2.33025911828960        2.20974971020112
H           -2.43970990872120       -0.04596392167409        2.15976666112517
H           -3.13289980785807        2.35409559384339       -1.81083972581475
H           -1.77061248550515        3.14536805825052       -1.02856060160277
H           -1.92312304176731        0.14371388129589       -1.56969381907028
H           -1.20626822992681        1.32977729855316       -2.66284163431199
H           -0.94735669550272        1.55960953235419        1.00782773020928
H            0.48390066884546        1.94761560736355       -0.86732838329944
H            2.06522851172960       -0.68205852318706        0.74138842670565
H            2.17734564990903        0.97922069417208        0.13898703310376
H            2.50798050628540        0.02639408609411       -2.19501903208123
H            2.65924643515305       -1.57762581722415       -1.46221980831102
H            4.21052493324126        1.71773453847513       -1.90696681386303
H            6.57951168899410        2.20995640255759       -1.39701477412242
H            8.07966253772975        2.24883649137876        1.09333901769421
H            8.86563673553267        2.52589082771446       -0.52832480508419
H            8.55533502906881       -0.12336131222336        0.49042924300648
H            7.62146667361731       -3.43942405124435        1.55893774251826
H            5.95321668476357       -2.86931462300420        1.81097493661830
H            6.43590769392136       -3.57425811791049        0.23827293156515
H            4.57864416683582       -2.08789541912084       -0.00104728301397
H           -0.25536927149321       -1.70908958317928       -1.58300495470153
H           -1.12143487288366       -1.31580098650614       -0.08312722915220
H            0.46733432162957       -2.09017978436537       -0.01231012978130
H           -4.88909913820885        2.67100835031852       -0.27480036822879
H           -4.21690248609672        2.77376278193091        2.68889577045042
H           -5.18759285705323        1.52063382437711        1.90498541534486
H           -5.76726827191574        3.18496017597475        1.95353021388431
H           -3.08641642738978        4.58613561422522        1.25757627368439
H           -3.40425922744782        4.63335890169833       -0.48496223922364
H           -4.70131087979455        4.94756646224802        0.65730866456320
H           -1.10655241657140        2.91335516609748        2.90308369231341
