25
 energy: -42.174479383205 gnorm: 0.004681935098 xtb: 6.6.1 (8d0f1dd)
C            3.24587564963233        0.94885421343901        0.35095081738314
N            2.18454334268059       -0.02029964450557        0.31121152440098
C            2.29450911117358       -1.33959483533071        0.45127175294057
N            1.08447576690246       -1.91867333334262        0.30825945762816
C            0.17546386997279       -0.93359867921046        0.06638790187009
C            0.86167277810668        0.26988919779822        0.07004701409590
C            0.17933289174438        1.52527087436211       -0.15174763698960
O            0.66420904729034        2.63101694342617       -0.15517148884491
N           -1.20253410784188        1.29804060326423       -0.37695299332833
C           -1.96867908570759        2.50582598934272       -0.63824239167683
C           -1.85566887515466        0.14222057288088       -0.37674792569752
O           -1.26223738560272       -3.23215136210634        0.56156210154575
N           -1.16157335929552       -0.99516222170350       -0.14139319336891
C           -1.84636077662325       -2.28559568028604       -0.27023034154486
H            3.98061858186572        0.67307426815469        1.10484748529362
H            3.73908315917870        1.00608373653469       -0.62156549526212
H            2.82381975249474        1.92737510815290        0.57737362820203
H            3.20426100442003       -1.86843988108562        0.65352660429602
H           -1.43296603631810        3.11805876884973       -1.36350872259469
H           -2.94719540447113        2.22865524674033       -1.01726862232705
H           -2.07449247590339        3.08402266127990        0.28009932164485
H           -1.73204487654076       -2.63342757228597       -1.30628196321549
H           -2.90637335835590       -2.10971663716911       -0.06778837041924
H           -1.72885052902556       -3.30180335337318        1.40402439097808
H            0.84154282947902       -2.90168644222631        0.37850876289030
