72
 energy: -99.450959649936 gnorm: 0.009815404189 xtb: 6.6.1 (8d0f1dd)
N           -1.59405719126512        1.38532303729916        2.11876158408375
C           -1.55453514039258        1.24637621254001        0.79918142517409
C           -2.73573848528299        1.25100808206110       -0.10198731019585
C           -3.62634965221970        0.02175133310110        0.09271303634821
C           -4.69625870921607       -0.16213334697986       -0.78600730050756
C           -5.53901849432192       -1.25518395237613       -0.68431344206964
O           -6.59994508122475       -1.49619168954954       -1.47973988386654
C           -6.93966405638050       -0.56193815421864       -2.47683717101679
C           -5.30560320826436       -2.22618189664682        0.32702376573373
O           -6.16168646726090       -3.26529685206847        0.34343710584573
C           -5.99896022028994       -4.27096007926801        1.31659147030007
C           -4.24659656657964       -2.03316040499678        1.19738740810494
C           -3.42095530885565       -0.92150292005871        1.08374200387070
C           -2.07441606327247        1.17256731824103       -1.50487805763901
C           -0.73362772257910        0.47934105970515       -1.27839995665958
C           -0.25849180536421        1.06847593100643        0.06714234630598
N            0.71761116388677        0.35717733361463        0.86338211386025
C            2.10187887183147        0.72331834474531        0.66357121605430
C            2.68276930977053        0.43605720091519       -0.74048738834609
C            4.17964789957620        0.50225229003023       -0.69209655634606
C            4.85223525306562        1.69419998322181       -0.91350434024426
C            6.23297337673218        1.76058741179250       -0.81182933205933
C            6.97278435513913        0.63338585375954       -0.48248753502199
O            8.31167462546201        0.58314361932682       -0.34626644518997
C            9.06527573274229        1.76019241349215       -0.52192343708955
C            6.29339557337320       -0.59683688574217       -0.26204443372597
O            7.08629714483031       -1.64467873613373        0.04175709630185
C            6.50449679109492       -2.90893917232820        0.25140761388366
C            4.91239828449854       -0.63688127627096       -0.36582190949022
C            0.49722448880750       -1.06452115767563        1.02027742509021
C           -3.59782697700297        2.55001384109171        0.05065671060833
C           -4.54976584128087        2.51941923996435        1.24718790229539
C           -2.73983367291779        3.81226438866392        0.12862156807933
H           -4.87661806761418        0.57000889125008       -1.55540530747054
H           -7.15252601340626        0.42229974401916       -2.04800066835813
H           -7.84026245141474       -0.95171250243677       -2.94682051527592
H           -6.15024353966164       -0.47169414404425       -3.22979246661500
H           -6.11816183940177       -3.87198791479903        2.32859971452701
H           -6.78554076328941       -4.99688391198593        1.12056746099445
H           -5.02421224552869       -4.76063274864822        1.22863775467431
H           -4.04881951845404       -2.74605604425413        1.98111765793511
H           -2.61713553877891       -0.82224101669647        1.79503625012937
H           -2.68981944658624        0.62670754722868       -2.21533817015160
H           -1.90907819349731        2.17485492378707       -1.89797868762025
H           -0.88483220956220       -0.59491851732053       -1.17841386974233
H           -0.03244280224318        0.66055360357117       -2.08938462290600
H           -0.74042896485903        1.35665366962038        2.64169484634327
H            0.16103377899680        2.06820544804232       -0.12117264571773
H            2.68839774208590        0.17205028317537        1.40246718417910
H            2.21177627350329        1.78970344299875        0.88081779713459
H            2.29792943779001        1.16696734066099       -1.45249711253716
H            2.36860037952725       -0.55865311733877       -1.05962451967652
H            4.30002873668870        2.58423423799599       -1.17406642359943
H            6.72762645162326        2.70066217119742       -0.99366103705204
H            8.76893556639425        2.53514526407002        0.19156236929089
H            8.97302535258782        2.14705159989731       -1.54128374732995
H           10.09916351894454        1.47512686786615       -0.33657528789298
H            7.33375034089263       -3.58107776497132        0.46349012023747
H            5.81971732763391       -2.89954550073760        1.10556237326201
H            5.97370972181630       -3.25893358041560       -0.63951404547987
H            4.38625965024683       -1.56400879412457       -0.19959464562616
H            0.83688816883937       -1.65746558179366        0.16281018549857
H           -0.56279173130888       -1.25630873581214        1.16730324604979
H            1.03997412127135       -1.40386238589806        1.90286306075782
H           -4.20587877772679        2.61012720913780       -0.85636057103459
H           -4.02698239959592        2.70700174527195        2.18293923742846
H           -5.07743775698657        1.57214889167759        1.31855070359450
H           -5.28904711691871        3.30873220179328        1.13439551333093
H           -2.15770667008806        3.83824344939600        1.04711118426593
H           -2.05732628077423        3.89647302715846       -0.71251466368165
H           -3.38666626044371        4.68581851443890        0.11743260182154
H           -2.48367459054486        1.47890333923769        2.58208729643462
