  25
        -42.15128445
 C          3.5953074935        0.7636070465       -0.5284038669
 N          2.5720544224       -0.2194379065       -0.3147805356
 C          2.5755012487       -1.4774812737       -0.7044873391
 N          1.4538749163       -2.0993148790       -0.3291185270
 C          0.6086975486       -1.2086539967        0.3765958463
 C          1.3701244521        0.0418411970        0.3653005686
 C          0.9857600668        1.2290140784        0.8208753715
 O          0.6664303153        2.2470970684        1.2562147434
 N         -3.4546189654        1.0089987617       -0.5846531152
 C         -4.7528653913        1.5436034114       -0.5032144318
 C         -2.2862615088        1.0856024398       -0.7289249733
 O         -1.1354365302        0.9658989802       -0.8633009390
 N         -0.5068477772       -1.4033451161        0.9159164918
 C         -1.2505395357       -2.6162837136        0.9257391924
 H          3.8981318547        1.2014310455        0.4245440309
 H          4.4598563150        0.2987430055       -0.9988065431
 H          3.2229840017        1.5623135693       -1.1733609760
 H          3.3778960637       -1.9396826854       -1.2509981791
 H         -4.7579912654        2.4816114051        0.0564677408
 H         -5.1457751980        1.7159749047       -1.5071077230
 H         -5.3846726977        0.8150421595        0.0059077976
 H         -0.6378742324       -3.5223881314        0.8741129879
 H         -1.9520767251       -2.6125678099        0.0879419245
 H         -1.8333378903       -2.6296704830        1.8464030894
 H          1.2240211909       -3.0582276553       -0.5372638577
