25
 energy: -42.063528538086 gnorm: 0.009653813164 xtb: 6.6.1 (8d0f1dd)
C            3.18890549549444        1.29290067571797        0.03028507528160
N            2.32598890487117        0.15374959672209       -0.03299401710230
C            1.10490299246143       -2.25801846882063        0.91762761260447
N            1.23473950117583       -2.35147472425951       -0.42759095114577
C            0.40328719997092       -1.24523984411160        0.07107429001746
C            0.99762702351054        0.10304600503197       -0.04365380850944
C            0.15733460478803        1.28543114907639       -0.08223655599403
O            0.57791370200585        2.42603277473377       -0.13902864018915
N           -1.21886211332021        1.04198247050693       -0.03803544174402
C           -2.10870461775474        2.19771690787333       -0.01866753124900
C           -1.85309894023194       -0.16010960001301       -0.06533549111263
O           -3.04452617621966       -0.29172840450118       -0.07775762185664
N           -1.01214610263865       -1.33807072252166       -0.08913065164413
C           -1.64444610687551       -2.49974023917582       -0.20406585545733
H            3.81471341275827        1.21363314335158        0.92104465997725
H            3.84951084733150        1.30433628667790       -0.83837691560863
H            2.61425259030368        2.21499534837052        0.06074314706058
H            2.79494927165174       -0.74798485479561       -0.02746235480408
H           -1.49983694246899        3.09452948081986        0.07241220858981
H           -2.69330320608853        2.23359622832895       -0.93931343505423
H           -2.79642367437311        2.11185109937998        0.82320187371924
H            0.82180491220734       -2.95156938734800        1.69131207819367
H           -1.11649336731150       -3.43246169309691       -0.20027447954841
H           -2.71734699952952       -2.46988400792616       -0.28081970217989
H            0.97968930238253       -3.10928067841745       -1.05178587434771
