  25
        -42.10854209
 C          3.1602569119        1.0745118319       -0.0336093012
 N          2.2921836149        0.0692527106       -0.0153722751
 C          2.5563364971       -1.2580981358       -0.0132477420
 N          1.3915522010       -1.9618129457       -0.0052147366
 C          0.3598424662       -1.0764055211        0.0019623956
 C          0.9037977215        0.1969849970       -0.0014724121
 C          0.0797604712        1.3842347665        0.0034267967
 O          0.4812254179        2.5235358650        0.0170219615
 N         -1.2773954699        1.0563449269       -0.0059807354
 C         -2.2332030964        2.1547412046       -0.0208903187
 C         -1.8464978060       -0.2034502269       -0.0128141566
 O         -3.0331211919       -0.3731174996       -0.0290562577
 N         -0.9637037219       -1.3072110570        0.0028331878
 C         -1.5188844649       -2.6462043570       -0.0032979837
 H          3.6367773372        3.4755651848        1.6742890586
 H          4.2136290097        0.8666828399       -0.0416971958
 H          2.7782588353        2.0799255116       -0.0467142272
 H          3.5334228498       -1.6929996659       -0.0284963269
 H         -1.6779327822        3.0884264373        0.0251366227
 H         -2.8293424380        2.1141187840       -0.9329226571
 H         -2.9072401931        2.0696875199        0.8312673846
 H         -1.2274717604       -3.1863288705        0.8980746552
 H         -1.1930982491       -3.1911547266       -0.8900414092
 H         -2.6040056349       -2.5506777619       -0.0242008774
 H          1.3224566648       -2.9689138085        0.0087600602
