72
 energy: -99.644085654514 xtb: 6.6.1 (8d0f1dd)
N           -1.67296582352389        3.13557692041813        1.94674384173891
C           -1.81142196811396        2.31968464147752        1.00088414740630
C           -3.04106643815114        2.18232750484656        0.18634886179205
C           -3.53507821990569        0.75253965182813        0.26895787217250
C           -4.53788555008929        0.31051200785327       -0.59338401701767
C           -5.03347703676725       -0.97607865233909       -0.51667192814831
O           -6.01476884529172       -1.48713484714148       -1.30916075137960
C           -6.62455994583647       -0.63817363421688       -2.24500628677226
C           -4.51452986709376       -1.86637212948731        0.44869914296337
O           -5.06940214047884       -3.10621334248475        0.45450563774982
C           -4.66267478954093       -4.02496988915688        1.43856150904881
C           -3.51539932848162       -1.42596730958563        1.29528673740826
C           -3.03313015876464       -0.12698874918040        1.20850195067988
C           -2.58088961454660        2.51104398235704       -1.25652526189175
C           -1.72075301650882        1.42972857437521       -1.90777098432132
C           -0.28001429500877        1.31756995903956       -1.47242634615495
N            0.47678599044220        0.34581414728636       -1.23882587838499
C            2.78033747607797       -0.64733345469158        0.45267754259582
C            3.30452336265601       -0.95063046588352       -0.88639866357722
C            4.66386990796846       -0.69791446639034       -0.31578570958551
C            5.26573148276293        0.55815588884346       -0.48477287148439
C            6.61536190123982        0.71533674403677       -0.23783378329064
C            7.38490144718105       -0.35736021831135        0.18029549333493
O            8.73009536225473       -0.32587952987972        0.40349867993395
C            9.41297642245948        0.86458726600592        0.13051734638813
C            6.75738129175644       -1.60143724773700        0.42497116340811
O            7.58195055613112       -2.58495388715356        0.86874193026037
C            7.05006795843235       -3.86271231489445        1.09154517759774
C            5.41598968785770       -1.75715730449745        0.18292922205308
C           -0.16108473023155       -0.95754834946328       -1.18427489446537
C           -4.18154673760489        3.11819925233201        0.63938889890170
C           -4.63258190287369        2.78026745043096        2.06109052143916
C           -3.81978486159742        4.59817850673691        0.55423764289732
H           -4.93515183777034        0.99019804857200       -1.32837874291151
H           -7.10096065199608        0.22015160092730       -1.75781691836342
H           -7.39033293698555       -1.24290762782562       -2.72655419925166
H           -5.91438080260243       -0.28576375419748       -3.00276319308471
H           -4.85638768799912       -3.64477418977580        2.44526433041297
H           -5.26450662418474       -4.91925752458760        1.27507870841449
H           -3.60185903000411       -4.28219474396255        1.34611595088219
H           -3.09976784628710       -2.08113606373097        2.04222260937798
H           -2.26736521729583        0.19100734537161        1.89982760029692
H           -3.47192352842565        2.64663199049643       -1.87026057443685
H           -2.03177481087907        3.45470669509388       -1.25527824924647
H           -2.23555992654939        0.47570446352113       -1.86452121084442
H           -1.64833205661239        1.69073533995910       -2.97432211840431
H           -0.98966830258151        1.76608954527297        0.51117962814405
H            0.23526489245276        2.27959929435133       -1.58084889894982
H            2.59518943373258       -1.41666038472524        1.16477784369922
H            2.67129297655287        0.40836890265957        0.67032325948021
H            3.14090916259345       -0.31131954810617       -1.74981760272566
H            3.14802147939422       -1.97903057706632       -1.17446466791511
H            4.68509271766493        1.39747059194687       -0.84729552046310
H            7.06980105576649        1.67450163420143       -0.43018257851740
H            9.05912777572541        1.69935891199822        0.74266983470333
H            9.35563641673714        1.13617887967236       -0.93230193550796
H           10.44433009915074        0.65692914731842        0.39608182522369
H            7.89408054005183       -4.48740524852654        1.37635133831547
H            6.32782663678678       -3.85854963136603        1.91008428031944
H            6.60632492881134       -4.28627034789223        0.18759154770876
H            4.91965163473817       -2.69675374851722        0.35065345665399
H           -0.12141089924524       -1.38967508677792       -2.17649217910065
H           -1.18902855314726       -0.93290250074464       -0.81861390438622
H            0.34066085004865       -1.63966338227422       -0.54027207093970
H           -5.01755178819020        2.92964965086898       -0.04202566729247
H           -3.82835318458973        2.98222375021867        2.76204821911804
H           -4.92495857539762        1.73578229510073        2.14474402902270
H           -5.48290861535926        3.39879162304530        2.33320810916518
H           -2.96052012556903        4.80681271988291        1.18100340150221
H           -3.60639752675546        4.90214878324389       -0.46647455528858
H           -4.65613003348947        5.19270500595070        0.91143433646480
H           -0.76725898673146        3.20248389564632        2.40640109188506
