25
 energy: -42.312751833344 xtb: 6.6.1 (8d0f1dd)
C            3.33331241828474        1.86917323619232        0.08579834219214
N            2.95834208797968        0.80849601104212       -0.57710453696765
C            2.20684570393391       -1.18517725758580        0.14766098076296
N            1.31341352106895       -2.26522336486213        0.06425046400665
C            0.25430833129290       -1.40639261470083        0.00962168171056
C            1.03540852606761       -0.24043701657966        0.06245622764680
C            0.29737099857925        1.01335168839087        0.08127668026676
O            0.71709964320765        2.14865179354502        0.15239999863431
N           -1.13773516420781        0.82441851667017        0.02084902067353
C           -1.96168119393723        2.03862578192383       -0.02866143420604
C           -1.83689260900157       -0.33958038900569       -0.06307561438726
O           -3.04943406243976       -0.35465521145122       -0.14871724872694
N           -1.08738549138502       -1.51605645528510       -0.03234059809087
C           -1.81006637751966       -2.75858966577012       -0.09605127297242
H            3.62614687561087        1.82669811526903        1.15182737161982
H            3.97977453038796        1.69452285357042       -0.93938518008609
H            2.94790634713897        2.89265971412857       -0.08075266848480
H            3.25902795843815       -1.38565409409368        0.27942627873228
H           -1.29870938863475        2.89735101414680        0.01265225678673
H           -2.55212763579134        2.07727307021250       -0.94828707993067
H           -2.63978851471801        2.06305125762975        0.82328416560009
H           -1.59638352928720       -3.37818582376771        0.77645573154008
H           -1.57019851358088       -3.31348264990112       -1.00465561016179
H           -2.87053864709271       -2.49185096090954       -0.10953226015747
H            1.40890023897725       -3.26220174902128        0.11856110016495
