  25
        -42.24649327
 C          3.2177281255        1.1440240681       -0.0268023439
 N          2.2724017711        0.0587354262        0.0160877579
 C          2.5495725382       -1.2368504916        0.0335578865
 N          1.4009260150       -1.9520806906        0.0297894997
 C          0.3572661160       -1.0732769237        0.0128615985
 C          0.9067865690        0.1991280370        0.0065623432
 C          0.0774347301        1.3931547597       -0.0100397577
 O          0.4857998374        2.5294255750       -0.0448323133
 N         -1.2733088099        1.0642794226        0.0187180599
 C         -2.2307457584        2.1641033263        0.0073071070
 C         -1.8451093886       -0.1975784854        0.0252936515
 O         -3.0301957948       -0.3663477837        0.0400519637
 N         -0.9649859643       -1.3060230956        0.0185495875
 C         -1.5463374000       -2.6229145420       -0.1041582248
 H          3.8722871559        1.1153971453        0.8444052839
 H          3.8284602380        1.0735001315       -0.9274418682
 H          2.6681808548        2.0850554293       -0.0369065032
 H          3.5328275233       -1.6642429066        0.0471760151
 H         -1.6734826673        3.0968978285       -0.0278576440
 H         -2.8801621979        2.0772030985       -0.8632330523
 H         -2.8483780668        2.1261211132        0.9039234483
 H         -0.9146698952       -3.3731457215        0.3731187586
 H         -1.6794866894       -2.8752030023       -1.1598626317
 H         -2.5195090446       -2.6231207272        0.3790257383
 H          1.3458725229       -2.9606049832        0.0484855306
