25
 energy: -42.177068936726 gnorm: 0.005820795355 xtb: 6.6.1 (8d0f1dd)
C            3.11978185977758        0.26629232912478       -0.28354723203342
N            1.70180640793210        0.17932257949124       -0.10543970783701
C            3.88019094808078       -0.79567050526902        0.49607558454014
N            1.04644987608805       -0.97155839980488       -0.15541914939524
C           -0.24466331124662       -0.67167334605986       -0.07202812675793
C           -0.45614776329520        0.73297395975202        0.01998390353940
C            0.86274196448851        1.33119696530255        0.01157650338724
O            1.27436885336087        2.46231895292733        0.08555468737251
N           -1.77095024215826        0.97132071019264        0.03508359124939
C           -2.46249763869268        2.22163828828956        0.07148336250205
C           -2.43525055575884       -0.28303441206934       -0.04256344550781
O           -3.61828560187774       -0.43983522914833       -0.06437901004180
N           -1.44893293130143       -1.28175907248935       -0.09672858134326
C           -1.76346768696685       -2.68013687386296       -0.18710312370298
H            3.73149941732266       -0.66925416694848        1.56867155479133
H            3.34388126877040        0.15636842768070       -1.35694289002317
H            3.41244192043533        1.28095615454197        0.01081694679408
H            4.94208562132969       -0.70479792040447        0.27476190809634
H           -1.74189938269825        3.03339355169928        0.15068930610031
H           -3.06019872966827        2.33740751612355       -0.83646697718924
H           -3.15034214741482        2.23970747077734        0.91996855240078
H           -1.35542988631286       -3.21837434047418        0.67005687735934
H           -1.34060473266722       -3.10690713889690       -1.09825759906900
H           -2.84878116244281       -2.77823306333055       -0.20184755260770
H            3.54263514922865       -1.79342389567665        0.21717223513001
