72
 energy: -99.300358581453 gnorm: 0.006215890969 xtb: 6.6.1 (8d0f1dd)
N           -1.68400318222540        3.49719695373405        0.48073499295280
C           -2.35332144213150        2.44955018564732        0.67163015585350
C           -2.98797229145087        1.48739095354719       -0.34128214346027
C           -3.47023473051086        0.73424881258281        0.90758401162045
C           -4.32768231970757       -0.32136974059179        1.27959108258272
C           -5.12892698542391       -1.14711641432767        0.54768871960591
O           -6.05802970812894       -1.95033616154553        1.08787663379524
C           -6.38169620101542       -1.86282901643145        2.45771249862866
C           -5.14166613550359       -1.33555015581224       -0.92436094691825
O           -6.40172970126418       -1.21211763040257       -1.40221958147528
C           -6.69825790939672       -1.71663720869746       -2.68466021686772
C           -4.06623403639066       -1.72651472873598       -1.61310498387033
C           -2.85103693741051        1.62556083441567        1.75115935387142
C           -1.90129577259196        0.76877064146595       -1.19726746349471
C           -1.02061687260447       -0.10672259867495       -0.41842152382825
C            0.02654360581687        0.42046821675535        0.47855104780892
N            0.90631187232685       -0.61205826786404        0.97412062965722
C            2.30672009048750       -0.26708158708408        1.04411313595005
C            2.96330763343251       -0.38857469096252       -0.34421271883569
C            4.42324438151796       -0.05198305265718       -0.27674143599893
C            4.86138532854831        1.25094982929806       -0.47487891780327
C            6.20735709965500        1.56968547799938       -0.40226506969378
C            7.15162807020660        0.58944791497817       -0.12404443663214
O            8.47885205287145        0.77914755971712       -0.03943485792947
C            9.01027716545942        2.06458147325067       -0.26576794713294
C            6.71261987528736       -0.74916713130539        0.09219234313268
O            7.68994141549560       -1.63442125013712        0.35616579557442
C            7.36147999204026       -2.98772779541397        0.56634697403915
C            5.35857983727832       -1.04115497732098        0.01396237748518
C            0.38263181479454       -1.36853365349375        2.08278307211283
C           -4.07806016895406        2.11999980467383       -1.21753934163315
C           -5.12864210857945        2.81146122617716       -0.34764621642831
C           -3.47774824272219        3.13032411341587       -2.19291338488664
H           -4.41648444445671       -0.39794194469201        2.35758023233185
H           -5.56007441117736       -2.21591998026797        3.08772244309720
H           -7.24349779495690       -2.51303270397504        2.59457858866687
H           -6.64726187944550       -0.83935501170132        2.73675522277017
H           -6.42276699943083       -2.77275775197628       -2.76107661265779
H           -7.77558359676553       -1.61150156601093       -2.79688039965426
H           -6.19288249727129       -1.14955989433015       -3.47071409577786
H           -4.10480308396681       -1.94805075535174       -2.66597833542445
H           -2.79674820362633        1.71747819623010        2.82150674263263
H           -2.40648692734687        0.19980398720669       -1.97783238130534
H           -1.32031212018588        1.57956721068647       -1.64680279848090
H           -3.12695999709947       -1.86670063764560       -1.11416879035833
H           -1.14778830325176       -1.17502274493904       -0.45197893705616
H           -0.46550378359856        0.94761789648021        1.32578042877944
H            0.60791741063168        1.19261668070126       -0.03888066346182
H            2.80266442474661       -0.95701899654253        1.72870153269447
H            2.45746924521527        0.75283930349403        1.42794333613495
H            2.46175437078692        0.28361382779326       -1.04115030743929
H            2.82486441185391       -1.41052214185567       -0.69816114614646
H            4.14866511937490        2.02947720647762       -0.70037323199780
H            6.51598410758037        2.58866392153214       -0.56957795127965
H            8.63985174995767        2.78599294568630        0.46865032385574
H            8.78114327175095        2.41956799968362       -1.27494622405505
H           10.08783877232499        1.95858269466196       -0.15593695458745
H            8.30834971557239       -3.49373539599656        0.74466819747278
H            6.71449071993624       -3.11154178388669        1.44025876123399
H            6.87739107145206       -3.42351166199205       -0.31284298950202
H            5.01573301125225       -2.05221593319579        0.16742420670714
H           -0.65357337676536       -1.63385256950095        1.88100419338791
H            0.41876035547466       -0.80898473921350        3.02861099492731
H            0.95917072831338       -2.28466532922666        2.20127434241003
H           -4.56989797300063        1.31598256072233       -1.77763896934123
H           -4.67919963414483        3.63037347424870        0.20994523815019
H           -5.57931489333657        2.11561614247203        0.35610447204716
H           -5.91701192497209        3.21906487964882       -0.97468868463636
H           -2.85741935394756        3.84142095884540       -1.65200559699936
H           -2.87426174774673        2.64468832605461       -2.95497465265116
H           -4.27258598056982        3.67730435574041       -2.69337085514156
H           -1.36883945141301        4.01087056036103        1.29728452543449
