  25
        -42.22266319
 C          3.2867675308        1.4006496260       -0.0261358111
 N          2.4799800332        0.2079821394        0.0001282065
 C          2.9074079232       -1.0486981747        0.0238315955
 N          1.8628275231       -1.8978245728        0.0348597445
 C          0.7125038107       -1.1578088826        0.0170224009
 C          1.1082553014        0.1757031161       -0.0052420336
 C          0.1191394363        1.2149833215       -0.0086342479
 O          0.3241724274        2.4057451437       -0.0098121763
 N         -1.2025943344        0.6839856070       -0.0051258553
 C         -2.2368066325        1.7129974129        0.0156151112
 C         -1.4848062472       -0.6598136386        0.0033825062
 O         -2.6670761319       -1.2044106449        0.0056641280
 N         -0.5431813275       -1.5833846616        0.0170246763
 C         -3.9773347577       -0.6535906860       -0.0553441216
 H          3.9833973211        1.4073298481        0.8119245025
 H          3.8552486673        1.4545424794       -0.9553786245
 H          2.6289429935        2.2665214490        0.0401650141
 H          3.9396337160       -1.3430989767        0.0331947635
 H         -1.7282974657        2.6725535577       -0.0810617287
 H         -2.9204696931        1.5996826380       -0.8194836025
 H         -2.7668057541        1.7057506695        0.9655012498
 H         -4.6266691977       -1.5173965226        0.0933891031
 H         -4.1867825010       -0.2279580000       -1.0372823173
 H         -4.1748088450        0.0704319257        0.7319289218
 H          1.9120673304       -2.9070364767        0.0544677458
