25
 energy: -42.049571077985 gnorm: 0.003903137030 xtb: 6.6.1 (8d0f1dd)
C            2.57872276311923        1.53729875789095        1.05699539173570
N            2.63461606910109        0.25510428067379        0.38013168782652
C            3.60390409334648       -0.53433359394439        0.63742407590873
N            1.41825181518415       -2.01495799830198       -2.04914128401309
C            1.60339667449129       -1.04239476525237       -1.38616866979922
C            1.58233018798690       -0.03968982466006       -0.50826748672141
C            0.46434260874740        0.96977765342774       -0.71462189934676
O            0.71787535240854        2.06711790461998       -1.15976622177438
N           -0.79553863132947        0.53343769443574       -0.43856634584662
C           -1.91804478729411        1.36399431067702       -0.81026781728380
C           -1.02817655089535       -0.63002253493860        0.35112331268314
O           -0.07508774917700       -1.18513953389714        0.89823817509723
N           -2.29557235534514       -0.96467961565917        0.41076414510762
C           -2.82305571516007       -2.02913513098556        1.14728137181090
H            1.66636196392903        1.61126316438226        1.64943731169798
H            3.44245105437023        1.62213199528460        1.71365748055526
H            2.59242944224718        2.34858397440330        0.32767771313164
H            3.73365484548371       -1.51485539603812        0.21063488628304
H           -1.58939499787596        2.08659017879357       -1.55725217366786
H           -2.71180030204048        0.73267193214259       -1.20981281072941
H           -2.30596230490780        1.90074217631291        0.05898687442581
H           -2.11634719648780       -2.42666229488418        1.88921675379957
H           -3.11855680361249       -2.83943805183891        0.46813163029036
H           -3.73229029279108       -1.68378124555906        1.65301696973276
H            1.63192233060173       -2.30538549548347       -2.98768145300373
