25
 energy: -41.977133442015 gnorm: 0.008841905138 xtb: 6.6.1 (8d0f1dd)
C            3.30895823878510        2.03209137357186        0.00585418339443
N            2.15132307525827        1.27059405574364        0.00513563228294
C            1.69528612985557       -3.67741027541393        0.01342753399703
N            1.40149704767668       -1.24832494017147        0.00771734638731
C            0.21973925799703       -0.78135939329186        0.00335076749316
C           -0.08485712719602        0.62710849021038       -0.00092267059436
C            0.90263671756770        1.71107370118541       -0.00088109073211
O            0.56202914312570        2.90023929112159       -0.00612511005809
N           -1.42342336001811        0.77309783577847       -0.00480150316248
C           -2.19027454227077        1.98134842660033       -0.01037850451602
C           -2.03542290539931       -0.49505671654862       -0.00357324273968
O           -3.21561257444388       -0.70535872005423       -0.00636878623186
N           -1.01112190614357       -1.42404395570320        0.00146261983677
C           -1.24829250897044       -2.84022224008712        0.00345323838133
H            3.88919676733428        1.81449483820608        0.91252898078090
H            3.93363603863626        1.74226551622883       -0.84899311350616
H            3.10697158841934        3.11350576136811       -0.04186304487001
H            2.77452709398608       -3.89447140497952        0.01540802792936
H           -1.51262347432269        2.83823016011269       -0.00589292276428
H           -2.82878685640190        2.01042869980843       -0.89773570407352
H           -2.84150435976557        2.01014578464481        0.86761678675222
H           -0.81157395113341       -3.30531182449736        0.89065549047591
H           -0.81021676820742       -3.30800274944289       -0.88170256476881
H           -2.32751326673621       -2.99996662452216        0.00276854402123
H            1.55585401647056       -2.32685654826932        0.01103072418494
