  72
        -99.29734484
 N         -2.0282147923        2.6099806952        2.7490136184
 C         -1.9512825023        2.1030279186        1.6072479251
 C         -3.0897274169        2.0508377774        0.6327116923
 C         -3.9492760888        0.7581014203        0.9262593018
 C         -4.7288867251        0.3528918537       -0.2451356759
 C         -4.8848216844       -0.9304987784       -0.6483502180
 O         -5.5864181937       -1.3160677308       -1.7410913486
 C         -6.2327628258       -0.2826006111       -2.4473665193
 C         -4.2870866914       -2.0039373713        0.1064230054
 O         -4.5732297816       -3.2415179582       -0.3046147988
 C         -4.1526867431       -4.3533329585        0.4558040870
 C         -3.4520984933       -1.6715717332        1.1911095923
 C         -3.2246422376       -0.3806274928        1.5573502321
 C         -2.5240280157        1.9562009081       -0.8021098048
 C         -1.6867443525        0.7090286095       -1.1057515992
 C         -0.2963930058        0.7991675674       -0.6065578664
 N          0.4479220104       -0.2518958850       -0.2769745265
 C          1.8611711755       -0.1009103684       -0.0258186217
 C          2.6967921307       -0.3668688835       -1.2934961964
 C          4.1578424184       -0.2421718287       -0.9681717194
 C          4.8154411175        0.9689561867       -1.1013558229
 C          6.1517342158        1.0915813990       -0.7524785810
 C          6.8554453726        0.0038027629       -0.2562051929
 O          8.1470373529        0.0107275730        0.1229159017
 C          8.8823871939        1.2092617488        0.0326841137
 C          6.1897155948       -1.2457392673       -0.1217408315
 O          6.9472174063       -2.2527459856        0.3584993215
 C          6.3782241465       -3.5318219751        0.5026843052
 C          4.8540491467       -1.3436630220       -0.4754478765
 C         -0.0856043622       -1.5920683752       -0.3114011441
 C         -4.0177479576        3.3019511340        0.7081688387
 C         -4.7672935245        3.4507558299        2.0328306992
 C         -3.2490566176        4.6007438652        0.4539268193
 H         -4.6600152129        1.0929968376        1.6990403557
 H         -6.9866587061        0.2043652432       -1.8225448602
 H         -6.7063215119       -0.7507061417       -3.3071852905
 H         -5.5119329323        0.4714860251       -2.7790200863
 H         -4.5100519968       -4.2887580524        1.4873107046
 H         -4.5956740982       -5.2221387607       -0.0268716360
 H         -3.0627153772       -4.4542573571        0.4503960843
 H         -2.9753677446       -2.4679645683        1.7449412387
 H         -2.5840080866       -0.1604197983        2.3975542687
 H         -3.3771810864        1.9658686703       -1.4815230609
 H         -1.9162009240        2.8373718441       -1.0067302844
 H         -2.1915914544       -0.1777182751       -0.7266270651
 H         -1.6419736314        0.6065378013       -2.1992595823
 H         -1.0340368401        1.6203908610        1.2113813377
 H          0.2140153993        1.7483163082       -0.6729003857
 H          2.1607420503       -0.7988439553        0.7598276037
 H          2.0614968061        0.9133539137        0.3256033155
 H          2.4166227706        0.3577557925       -2.0595651293
 H          2.4787338006       -1.3678006082       -1.6688868653
 H          4.2917446131        1.8292326764       -1.4895489937
 H          6.6390348576        2.0448792272       -0.8741518566
 H          8.4412031238        1.9969706527        0.6510380716
 H          8.9581832770        1.5557812075       -1.0023281030
 H          9.8759845061        0.9707059220        0.4069867851
 H          7.1759660655       -4.1655048361        0.8849763973
 H          5.5494940814       -3.5243364476        1.2183248862
 H          6.0306750534       -3.9273818425       -0.4568753855
 H          4.3401589335       -2.2877576041       -0.3826979592
 H         -0.4450340230       -1.8469581603       -1.3107288061
 H         -0.9176355530       -1.6871405258        0.3898581899
 H          0.6912550130       -2.2973810228       -0.0282896323
 H         -4.7586733879        3.1751957831       -0.0895299803
 H         -4.0704910608        3.4253698467        2.8646436429
 H         -5.5268015494        2.6840998617        2.1735914709
 H         -5.2836007616        4.4071358104        2.0419453105
 H         -2.4679855472        4.7300454633        1.1984211565
 H         -2.8071398074        4.6367450554       -0.5374256339
 H         -3.9307452690        5.4430737712        0.5335012158
 H         -1.1974190026        2.5906836030        3.3317655185
