25
 energy: 107.655993704909 xtb: 6.6.1 (8d0f1dd)
C            5.27820051992256        1.13488162686187        0.19195475555104
N            1.95666644389945        0.33431515438409        0.00677140392432
C            2.32753756075995       -0.97081245989721        0.00487996072170
N            1.21368364056906       -1.76707651924884       -0.01459220143533
C            0.12719728098167       -0.96329920857436       -0.02811672957998
C            0.56868412465536        0.35290018190038       -0.01517392053981
C           -0.34045401753545        1.44801262201184       -0.04018567225321
O           -0.05885122785505        2.63438375206436       -0.02978128260562
N           -1.68724459566409        1.00564672287260       -0.05963857771672
C           -2.71996119308668        2.02967545829633       -0.08045133876933
C           -2.14582266432938       -0.28184411511183       -0.06747645017669
O           -3.32591190072807       -0.55509168117220       -0.09131098399550
N           -1.18671645419427       -1.30782752070995       -0.04814367003657
C           -1.62586166139117       -2.68666300638583       -0.05316651455556
H            5.79992541482265        1.42610344932975        1.11878764900464
H            5.99203181322901        1.30899908573333       -0.63226843507218
H            2.62566858140790        1.12617730125340        0.02095767896249
H            3.33135437808998       -1.31185914823843        0.01983222715953
H           -2.23732705241603        3.00421819366995       -0.07597058549195
H           -3.33320739161966        1.91461423438305       -0.97417946887699
H           -3.35374451667218        1.92136899910522        0.79764387709090
H           -1.28830710641459       -3.20278731271266        0.84727162264497
H           -1.26097944791186       -3.20674473983654       -0.94098441624259
H           -2.71607762443480       -2.67559575609661       -0.06730153221339
H            1.23305828745119       -2.77494148623222       -0.01923209871421
