25
 energy: 41.098053870486 xtb: 6.6.1 (8d0f1dd)
C            4.59977117237370        0.93656191387593        0.17908701510298
N            2.14360382833025        0.28889261570569       -0.23531533236139
C            2.41895872741740       -0.96526494113226       -0.07494790176456
N            1.29591118357868       -1.73681885929421       -0.00421076036948
C            0.24126554803039       -0.87998441990570       -0.01729153637494
C            0.75774207103942        0.40297443777103       -0.07954633484458
C           -0.17615007570010        1.51265103051297       -0.03936842279709
O            0.06292781656848        2.69084403917869       -0.02391947063902
N           -1.51744585497733        1.03615360842786       -0.05409443496648
C           -2.55461155113195        2.05168810170082       -0.07905713869674
C           -2.00768238476217       -0.24551811425782       -0.06161622039404
O           -3.18740731375726       -0.51502158055999       -0.09569314022251
N           -1.06793280233576       -1.25457035817774       -0.00054400644921
C           -1.53908623211550       -2.62971939194506       -0.02068372766075
H            5.09799340535405        0.81869215515920        1.09078953110791
H            5.18957232525752        0.94182284291357       -0.69755219369601
H            3.65844311755989        1.36250383999862        0.18134448221955
H            3.38178679399115       -1.44096955895807       -0.00245030795094
H           -2.07184159628600        3.02018759884753       -0.08494668866180
H           -3.17291945656697        1.94407283307134       -0.96950145187232
H           -3.20029688747104        1.95796556207541        0.79426850938671
H           -1.22319605463779       -3.15421744400646        0.88010148261867
H           -1.19546986743026       -3.15296172686835       -0.91518211127357
H           -2.63020442523565       -2.59047142665016       -0.04676665296646
H            1.22171931632916       -2.74631498212963       -0.01117648578917
