25
 energy: 7.386471919826 xtb: 6.6.1 (8d0f1dd)
C            3.61316554237754        1.08897444804791        0.11808293695458
N            2.42877958440659        0.20265590492239        0.04488998040793
C            2.58478304566890       -1.17963627310004        0.04390151855380
N            1.38809537628319       -1.85284523333350        0.00004437415498
C            0.39592077360500       -0.94737577376128       -0.01004669976838
C            0.95360735524487        0.34931659305475        0.01652476398058
C            0.04209490101784        1.44127234919621       -0.01612399548706
O            0.33984190681805        2.63418573685801       -0.01349356179350
N           -1.34179093519696        1.04036800727439       -0.03974305202562
C           -2.33350535669042        2.10061880977582       -0.05949915411047
C           -1.87346079196858       -0.20773794782279       -0.05459873801242
O           -3.06774239598732       -0.42585729966927       -0.07676609566273
N           -0.95264382202046       -1.25282251098815       -0.04156625076401
C           -1.48621625339914       -2.60335368874398       -0.05199606320846
H            4.18808517055098        1.07640560558617        1.04915175109785
H            4.37081626067787        0.98691735054486       -0.68203019591621
H            3.21189940013708        2.07740374736497        0.08235953759557
H            3.52696467410417       -1.67001900518846        0.01068862824880
H           -1.79880008138947        3.03841383551686       -0.04544271332217
H           -2.94675413754069        2.03141094172056       -0.95885438828109
H           -2.98920995126155        2.02314434126103        0.80847987240877
H           -1.19840683223716       -3.16140492688207        0.84258950859364
H           -1.17514145802359       -3.15779900919205       -0.94165215317555
H           -2.57809327661690       -2.50725979551379       -0.06680898594479
H            1.29482507008043       -2.86399351945338       -0.01533910386319
