25
 energy: 41.047127678788 xtb: 6.6.1 (8d0f1dd)
C            4.84263256024263        1.01924434375945        0.25705174893959
N            2.00238688049628        0.33424678812463       -0.21962494644031
C            2.33100330750138       -0.91590822848304       -0.09721903812333
N            1.23780675774369       -1.72850207425061        0.01488067972875
C            0.15680496962658       -0.90402215973899       -0.01152842427841
C            0.62601865693455        0.39627022967124       -0.10162519409041
C           -0.29766081258927        1.51492441141545       -0.02967908021066
O           -0.07735692759450        2.70051883849848       -0.01304100568898
N           -1.62288293514347        1.03045537342607       -0.05974432884277
C           -2.67828337050841        2.02236536716735       -0.08974430602563
C           -2.08915813202628       -0.26469912788336       -0.06153208092307
O           -3.26727495210622       -0.54369370188611       -0.10270117898643
N           -1.14569167364314       -1.27903560812468        0.01287846469068
C           -1.58631066307947       -2.66082438018816       -0.02229867228997
H            5.41620695445508        1.08156305687488        1.17215167972284
H            5.51494825795346        1.06136434112909       -0.59938714946026
H            3.66412504670591        1.22468500912992        0.10970888945652
H            3.32620490075727       -1.32955063262535       -0.02516465010572
H           -2.23172813917770        3.01320599703003       -0.10299638764940
H           -3.29186501176676        1.87342514912259       -0.97606722759212
H           -3.31399721042970        1.90109179216966        0.78586578896911
H           -1.25234607681217       -3.18882600092109        0.87216315663049
H           -1.22887335958097       -3.17541392721058       -0.91880261557380
H           -2.67498417117812       -2.64319406299831       -0.04765811916912
H            1.23084990701389       -2.73467877585343        0.02319863193764
