  25
        -42.13680683
 C          3.3911163866        1.5423660391        0.0017437588
 N          2.5473143282        0.3756292604        0.0022572195
 C          2.9406459816       -0.8915480512        0.0053223466
 N          1.8760352489       -1.7111751166        0.0023464958
 C          0.7408962262       -0.9407998118       -0.0025337682
 C          1.1806603040        0.3904713259       -0.0029868338
 C          0.2148363059        1.4682873247       -0.0009823107
 O          0.4860644511        2.6531878834        0.0016332814
 N         -1.0806749799        0.9836988398       -0.0007890258
 C         -2.1628821123        1.9461168574        0.0068285430
 C         -1.4722403238       -0.3843528381       -0.0058229846
 O         -2.6517617680       -0.6556138413       -0.0088888442
 N         -0.5053672804       -1.3359404673       -0.0052649420
 C         -4.8264072091       -3.6001467192        0.0047907531
 H          4.0265802029        1.5508588137        0.8875226228
 H          4.0244413915        1.5513919762       -0.8855921218
 H          2.7573814484        2.4293395670        0.0025322390
 H          3.9641063981       -1.2156403192        0.0100713333
 H         -1.7319533930        2.9455365625        0.0255914790
 H         -2.7816432104        1.8165839064       -0.8825225387
 H         -2.7933599161        1.7868906708        0.8828316554
 H         -5.1261928511       -4.0473029795        0.9360424549
 H         -5.1341047800       -4.0459463664       -0.9209707796
 H         -4.2252694821       -2.7082985859       -0.0005391402
 H          1.8897215262       -2.7216503215        0.0045756016
