25
 energy: -42.127959393436 gnorm: 0.006124901492 xtb: 6.6.1 (8d0f1dd)
C            3.05668553252510        1.03302976387793        0.21789047113761
N            2.29784189390872        1.92365274885467       -0.63702134260824
C            2.39495384871454       -0.30393944945758        0.19377993704294
N            0.75392337495764       -2.80026879268306       -0.28695783405590
C            0.28357476815188       -1.63721302363615       -0.09932596143487
C            1.05222595292024       -0.37779051272642       -0.02910161265655
C            0.31164961542411        0.84418104812517       -0.12628753567516
O            0.92701139841650        2.00910382268512       -0.26649410526725
N           -1.01045741457150        0.85230770879494        0.00104961278511
C           -1.78369268745037        2.08007714352023       -0.00319326157985
C           -1.77404235607792       -0.34554193980643        0.15172290430523
O           -2.95529856145782       -0.26590430673594        0.33215394398703
N           -1.08149506136354       -1.52030856662909        0.04561068977898
C           -1.84391336158608       -2.75750362035445        0.04363601797425
H            3.14854406948136        1.38903890736428        1.26059671733805
H            4.06242663795140        0.97581427114917       -0.20407349793900
H            2.63479544209104        2.88343401745516       -0.66811474827292
H            2.98341864823959       -1.18036661368577        0.40748883653999
H           -1.11747522757005        2.93604471823470       -0.03565845768603
H           -2.44847670526410        2.08729076191121       -0.86766729017220
H           -2.40385831445231        2.11326675902908        0.89315047420509
H           -1.49822026176978       -3.40015430306824        0.85231428376395
H           -1.67991564359770       -3.27904338898512       -0.89935256261636
H           -2.89767984491996       -2.52238558205618        0.17013335053592
H            1.74790577139851       -2.91858302957840       -0.41510741153019
