25
 energy: 76.111898384715 xtb: 6.6.1 (8d0f1dd)
C            3.63341897057921        0.92023536614049        0.19019788091335
N            2.59855898786299       -0.05758575373266        0.14053118851802
C            2.83086085493156       -1.37164571584696       -0.03097933647918
N            1.66120940845944       -2.04769752588184       -0.08985351035655
C            0.60289235985121       -1.15221937688684       -0.01537174156324
C            1.20096532687210        0.15471817254219        0.12292231372737
C            0.51910140341416        1.30378842452084        0.12315687132191
O            0.37559851560775        2.45838580945509        0.42172931856740
N           -2.35859742999110        1.44457184969005       -0.05666531385433
C           -3.12903640759244        2.59433256661976       -0.29594590016024
C           -2.65969855023107        0.36359019026358        0.32446224515608
O           -3.03022147882329       -0.59675641062005        0.83207426426808
N           -0.65005294989543       -1.32413182884976       -0.02952247657703
C           -1.22765846272120       -2.62689511100605       -0.15076407242178
H            3.49027939176863        1.66313010574931        0.96057213349475
H            4.53255936469293        0.30446379348399        0.22019539544729
H            3.72646888793081        1.59788321735773       -0.65225899417797
H            3.77107510917862       -1.82201113881950       -0.14016204446438
H           -2.34788739751746        3.33970670775261       -0.44625934208889
H           -3.74533955984432        2.43096267024804       -1.17504975400638
H           -3.78361579717146        2.80902686496180        0.54985511134292
H           -0.49726351384402       -3.35628589817335        0.14957712185964
H           -1.57326137115739       -2.80064699093984       -1.17807711977716
H           -2.13067226500045       -2.73024613899336        0.48415973289250
H            1.56239330630727       -3.02894688797126       -0.22135658597660
