25
 energy: -42.137026123396 gnorm: 0.003651180375 xtb: 6.6.1 (8d0f1dd)
C            4.97870643137000        0.13905372627523       -0.26755415509684
N            4.09107999954451       -0.16386704325898        0.78036520547080
C            2.87643218427886       -0.43306090905202        0.77798976306908
N            2.04449427652345       -0.50724537376171       -0.36993115549828
C            0.77448215460383       -0.66583188111390       -0.35551478606973
C           -0.47001065140710       -0.36927971592688       -0.12859332010634
C           -0.92991759745850        1.11346703456237       -0.00671789260812
O           -0.22371983367481        2.07500479637123        0.00060160577257
N           -2.27349866181940        1.01215009715891        0.09059779804308
C           -3.16711115825109        2.14311981239680        0.20629016613263
C           -2.73305733359301       -0.31067500482506        0.06883625930316
O           -3.86326893288745       -0.67610440443627        0.15550747540215
N           -1.60797170766834       -1.11640808934685       -0.06773957491303
C           -1.68094048005187       -2.55466890954795       -0.10366904646616
H            5.49248034701487        1.06322237103438        0.00261023981856
H            5.74062337246810       -0.64481962437741       -0.30108470634999
H            4.52767307481066        0.25757192282188       -1.26230586998774
H            2.36747233899867       -0.61841932653986        1.71307672065768
H           -2.57932494087511        3.02941885052598        0.43635275442098
H           -3.70483669171695        2.29169235142034       -0.73163652679481
H           -3.88996025924885        1.94800912451207        0.99819184829974
H           -1.14206122617978       -2.98995968625535        0.73906595388835
H           -1.26266954984044       -2.93702965118691       -1.03590978236185
H           -2.73436449317509       -2.82697901426287       -0.03988930806549
H            2.52970085234713       -0.44012291157743       -1.26776804806409
