  25
        -42.17584921
 C          3.2277558918        1.1356705460        0.0339056541
 N          2.2793763107        0.0550774131        0.0161793696
 C          2.5614652883       -1.2546661589        0.0077954905
 N          1.4104020056       -1.9704968015       -0.0078312863
 C          0.3670260425       -1.0857131091       -0.0079659431
 C          0.9103473263        0.1954724397        0.0064423428
 C          0.1047519173        1.3832585343       -0.0188265509
 O          0.4825801598        2.5364391252       -0.0429033135
 N         -1.2683140903        1.0451517799       -0.0106059917
 C         -2.2271581668        2.1371844721       -0.0051711927
 C         -1.7589645498       -0.2125307170        0.0075247381
 O         -3.0784388722       -0.3472351970        0.0768820351
 N         -0.9805984458       -1.3365875237       -0.0335693368
 C         -1.5129273558       -2.5895872223       -0.0327463008
 H          3.7907887389        1.1319501634        0.9681261929
 H          3.9256507255        1.0392466212       -0.7977384987
 H          2.6837136830        2.0755565827       -0.0523554615
 H          3.5442901727       -1.6780274758        0.0104630623
 H         -1.6589957153        3.0650365573       -0.0143741919
 H         -2.8662045868        2.0796060328       -0.8845852171
 H         -2.8481087077        2.0864984056        0.8879254322
 H         -0.8537570681       -3.4191044372        0.0600917812
 H         -2.5020435978       -2.7607715170       -0.4059947381
 H         -3.3109778237       -1.2595318511        0.3261627935
 H          1.3505839911       -2.9767030996       -0.0314667827
