  72
        -99.33083578
 N         -1.6898834170        3.0763604592        2.2341180353
 C         -1.9128695697        2.4211659158        1.1951258373
 C         -3.2820884114        2.3075624110        0.5643481956
 C         -3.6277613216        0.8183386530        0.4290308194
 C         -4.5651571218        0.4091577660       -0.5161703602
 C         -4.9497027013       -0.9195526846       -0.6152376609
 O         -5.8539215000       -1.4063434631       -1.4852777516
 C         -6.5337227102       -0.5222467995       -2.3464522352
 C         -4.3737043984       -1.8826003093        0.2603415454
 O         -4.8134920142       -3.1441727396        0.1012973374
 C         -4.3710095330       -4.1468122044        0.9871041069
 C         -3.4344952667       -1.4616833397        1.1907007288
 C         -3.0659844056       -0.1255233085        1.2746312472
 C         -3.1444524308        2.8985081286       -0.7812118526
 C         -1.2146816851        0.4309202614       -2.2604280057
 C         -0.0306713116        0.6293498925       -1.6666639898
 N          0.5549842301       -0.1699694058       -0.7309927035
 C          1.9434490349        0.0205327187       -0.4085374528
 C          2.8916109145       -0.6686964016       -1.4167656872
 C          4.3193788844       -0.4714022177       -1.0033031647
 C          4.9499107163        0.7491764014       -1.2099330265
 C          6.2517068389        0.9592428680       -0.7878707297
 C          6.9595979089       -0.0520526076       -0.1502767775
 O          8.2193912392        0.0390914732        0.3072439246
 C          8.9272242609        1.2476279452        0.1501200926
 C          6.3289616980       -1.3133554638        0.0520105377
 O          7.0910440572       -2.2413864689        0.6578837385
 C          6.5763712506       -3.5362700502        0.8621005069
 C          5.0195253833       -1.4941535694       -0.3700447853
 C         -0.0458165178       -1.4371063552       -0.4006937589
 C         -4.4301324537        2.9991351878        1.3570544639
 C         -4.6245370030        2.3950474444        2.7423566320
 C         -4.1995456537        4.5037886164        1.4678612692
 H         -5.0041536589        1.1413577746       -1.1730376983
 H         -7.1007276876        0.2259887699       -1.7845703296
 H         -7.2225408506       -1.1433136297       -2.9158990260
 H         -5.8446803777       -0.0215652152       -3.0332904386
 H         -4.6004563788       -3.8930311359        2.0262484982
 H         -4.9170390262       -5.0456099866        0.7058723683
 H         -3.2963231690       -4.3283663887        0.8830088638
 H         -2.9905659291       -2.1688974377        1.8729387672
 H         -2.3540410356        0.1747580557        2.0275815715
 H         -3.9847175558        3.3503391278       -1.2723438830
 H         -2.2077047669        2.8615778438       -1.3016941922
 H         -1.8325566984       -0.4286851036       -2.0767472142
 H         -1.5814245842        1.1393814250       -2.9779256638
 H         -1.1420556003        1.8956723564        0.6113531314
 H          0.5443073034        1.5165815288       -1.9013615209
 H          2.1321034406       -0.3805104357        0.5914564051
 H          2.1637089879        1.0912642715       -0.3914902116
 H          2.7205902929       -0.2367124871       -2.4052469300
 H          2.6554707540       -1.7326371822       -1.4597377181
 H          4.4255000121        1.5466025849       -1.7137783119
 H          6.7130995420        1.9173750738       -0.9627077179
 H          8.4364523336        2.0697553644        0.6798235327
 H          9.0428545973        1.5096395491       -0.9056298514
 H          9.9077853569        1.0705808103        0.5878782940
 H          7.3774803097       -4.0969661999        1.3397478555
 H          5.7027212051       -3.5219635478        1.5210897785
 H          6.3132084901       -4.0157259266       -0.0856051375
 H          4.5327102165       -2.4448283704       -0.2183958855
 H         -0.0403744913       -2.1228927734       -1.2541071668
 H         -1.0806436640       -1.2826482291       -0.0906575783
 H          0.5011059291       -1.8925077717        0.4218014304
 H         -5.3433978305        2.8283516024        0.7744394552
 H         -3.7373992210        2.5578553338        3.3474617613
 H         -4.8252130954        1.3282084559        2.6849130568
 H         -5.4670509772        2.8750980133        3.2326749712
 H         -3.3402474862        4.7032270047        2.1006109375
 H         -4.0211238399        4.9469466414        0.4905859518
 H         -5.0731898627        4.9772677153        1.9086504422
 H         -0.7329411868        3.1325376660        2.5688578780
