  72
        -99.35304667
 N         -1.5786947816        2.5331671907        2.5420586218
 C         -1.6277709871        1.9243594870        1.4532900600
 C         -2.8088315763        1.9351236316        0.5214484643
 C         -3.4152730235        0.5430006995        0.4540584222
 C         -4.3431067866        0.2346068993       -0.5426559277
 C         -4.9235534628       -1.0202772244       -0.6278991436
 O         -5.8211501982       -1.4020103421       -1.5585332544
 C         -6.2915501357       -0.4595372384       -2.4933161966
 C         -4.5699066827       -2.0214204946        0.3181722666
 O         -5.1700068926       -3.2152917640        0.1495631561
 C         -4.9136969127       -4.2489351852        1.0717674136
 C         -3.6620745153       -1.7026134362        1.3159001763
 C         -3.0931643782       -0.4370474415        1.3813603639
 C         -2.2438766514        2.3487704319       -0.8631105872
 C         -1.4502218486        1.2503611288       -1.5919940488
 C         -0.1082401278        0.9921363329       -1.0165630072
 N          0.4232869652       -0.2112933042       -0.8165671941
 C          1.7684997455       -0.4074730727       -0.5792410490
 C          2.7623387505        0.4625355228       -0.8834343833
 C          4.1664302582        0.2634529422       -0.6605065939
 C          5.0622350557        1.2335453755       -1.1296222754
 C          6.4245251329        1.0974547008       -0.9596064157
 C          6.9514488290       -0.0177859036       -0.3163854711
 O          8.2515065081       -0.2554712531       -0.0936786536
 C          9.2141684445        0.6824134597       -0.5204956050
 C          6.0569878209       -1.0204120338        0.1631458092
 O          6.6540486414       -2.0701910055        0.7622536012
 C          5.8604405308       -3.1275134593        1.2466909622
 C          4.6962068955       -0.8628352288       -0.0072063765
 C         -0.4172092329       -1.3922434827       -0.8357773126
 C         -3.9297574375        2.9284877630        0.9513896046
 C         -4.5672848896        2.5169883262        2.2761534671
 C         -3.4498002351        4.3744064860        1.0386461972
 H         -4.6229788296        0.9917446028       -1.2561327417
 H         -6.7749388338        0.3886204216       -1.9993656058
 H         -7.0251221132       -0.9896105280       -3.0975680914
 H         -5.4859467420       -0.0974965166       -3.1405206841
 H         -5.2155146824       -3.9663480555        2.0846263810
 H         -5.5144394374       -5.0930225637        0.7386427482
 H         -3.8567512487       -4.5340174840        1.0710489794
 H         -3.3940681259       -2.4331890549        2.0615381270
 H         -2.4091549776       -0.2176503330        2.1865885275
 H         -3.0729894095        2.6483198227       -1.5033440991
 H         -1.6015469129        3.2202953950       -0.7302340974
 H         -2.0483178475        0.3435084484       -1.6522223911
 H         -1.2927388904        1.6108806881       -2.6172869892
 H         -0.7825698540        1.3464686099        1.0324788485
 H          0.5515384816        1.8385436505       -0.9134513467
 H          3.0545572890       -2.6343989774       -2.1627185549
 H          1.9961276031       -1.3680485941       -0.1458525206
 H          2.5165220845        1.3885967924       -1.3841529043
 H          3.1519376303       -3.4013594970       -2.2587932649
 H          4.6813547029        2.1055676577       -1.6387915209
 H          7.0807049401        1.8661023763       -1.3344004544
 H          9.0651924629        1.6548472570       -0.0418158960
 H          9.2010357886        0.8026380355       -1.6074382479
 H         10.1750022681        0.2728668677       -0.2139375862
 H          6.5588898500       -3.8510629509        1.6621624435
 H          5.1802602823       -2.7884684281        2.0341861769
 H          5.2873762933       -3.5974574321        0.4411758436
 H          4.0282520988       -1.6189163238        0.3689230620
 H         -0.6811864538       -1.6558033301       -1.8615040027
 H         -1.3309302623       -1.2243406010       -0.2627098183
 H          0.1189611939       -2.2313164099       -0.3989604552
 H         -4.7025349776        2.8729812402        0.1756208045
 H         -3.8345506151        2.5718327421        3.0749433111
 H         -4.9620433112        1.5050453262        2.2263497643
 H         -5.3863187625        3.1918185468        2.5106767695
 H         -2.6592317710        4.4647846837        1.7772456971
 H         -3.0908525701        4.7427207849        0.0813217113
 H         -4.2778471153        5.0064719135        1.3487035436
 H         -0.7186248375        2.4849967609        3.0788657962
