25
 energy: -4.618921190487 xtb: 6.6.1 (8d0f1dd)
C            3.20070156121630        1.19509015203824        0.09044868014357
N            2.29068514793736        0.09566789114031        0.02682809885333
C            2.60115712391040       -1.25614940510779        0.03932766235620
N            1.41658346438269       -1.96184667435910        0.00196495533441
C            0.38908576409531       -1.08911339152977       -0.01276820864631
C            0.89781302572670        0.20204859933053        0.00607315481585
C            0.07973554482922        1.34776105715881       -0.01388424095811
O            0.44949526581875        2.52640520718874       -0.02108161319199
N           -1.31952061865037        1.03669817290831       -0.03218186521256
C           -2.17760048009495        2.23958795455839       -0.03814477768137
C           -1.85614654691654       -0.22308943820748       -0.04971659487312
O           -3.04925504409099       -0.44001674516656       -0.07066096335397
N           -0.95347889285923       -1.32820285953829       -0.04092524971355
C           -1.44536574872423       -2.68736119786242       -0.06192443827149
H            3.64686197519309        1.28766090280734        1.08497572205327
H            3.99312813652957        1.08315335597679       -0.64367815296034
H            2.62876758925566        2.09853167629117       -0.12577854747538
H            3.58542967345593       -1.65216467924303        0.02288663892532
H           -1.52548054642068        3.10937093905325       -0.01016344886009
H           -2.79366076044515        2.26194659058961       -0.94096054251198
H           -2.84467900893393        2.23744574673876        0.82538484737487
H           -1.12062161802164       -3.23469823161548        0.82784376184170
H           -1.09438369228002       -3.21473591596285       -0.95351351955852
H           -2.53291136962805       -2.62703930673164       -0.07773688450265
H            1.36587635835733       -2.96946849518802       -0.00627405238257
