25
 energy: 5.920411163155 xtb: 6.6.1 (8d0f1dd)
C            3.12682854678942        1.21742935529980        0.09893058236554
N            2.24880017605508        0.08964957095175        0.00898509721851
C            2.58985432819648       -1.25342534523956        0.07551725252869
N            1.41941841968375       -1.99720096363946        0.00052446714341
C            0.37199594562267       -1.14247171975584       -0.02144245486037
C            0.85351932762584        0.15407740638459       -0.00916003921740
C            0.02426350060727        1.28433121059774       -0.03441165382695
O            0.45372470396476        2.44395153539140       -0.06415641658094
N           -1.39982294643700        1.03914081024586       -0.03151851707807
C           -2.12065013202221        2.39007500060865       -0.01878332856676
C           -1.91090464796029       -0.25577440796819       -0.04633202373133
O           -3.08839743459797       -0.53358788671027       -0.06638521880966
N           -0.97223226997215       -1.37461585921323       -0.04455583292485
C           -1.40956741424121       -2.75367719334931       -0.06208598166130
H            3.51268227268007        1.36653497637793        1.11061737270137
H            3.95714731493883        1.10894914682465       -0.57357870286504
H            2.52965168530008        2.09009927736333       -0.18154778285567
H            3.58850858527334       -1.60637537552944       -0.07609014349586
H           -1.32652196295108        3.13317689572454        0.01261220579756
H           -2.73212899183413        2.51197719429817       -0.92085126433966
H           -2.78412344184397        2.48184168401702        0.84324177722366
H           -1.04999412827726       -3.28743685829707        0.82480393597364
H           -1.02479112351933       -3.27051647317996       -0.94765793955164
H           -2.50017974591192       -2.73281670507440       -0.07825023700425
H            1.41104151434339       -3.00809830147224       -0.00097201051715
