25
 energy: 57.757739297373 xtb: 6.6.1 (8d0f1dd)
C            3.01047875353244        1.21589575194909        0.09468575302082
N            2.19598077516953        0.02914992461820        0.02352417940602
C            2.62860740724595       -1.24762987512592        0.06286982040630
N            1.53075813523098       -2.08104876214600        0.00468215950881
C            0.40618648440941       -1.28988440067359       -0.01120804340607
C            0.82477973386709        0.01989600709375        0.01888546192121
C           -0.13922786410975        1.11849572595673       -0.07706105086110
O            0.29179958793211        2.25613532837180       -0.20097579185197
N           -1.42915239331412        0.76060755292666       -0.03253953514500
C           -2.19653781249350        3.22669249322617        0.03724532787152
C           -1.88456770501405       -0.48957616367843       -0.02730298235244
O           -3.03880187794257       -0.84244303517243       -0.03301047225274
N           -0.88383034982187       -1.61170639208080       -0.04191810584848
C           -1.29373496020867       -2.98657052279661       -0.07338381946865
H            3.14143064893651        1.53021512929656        1.13109759081774
H            3.99064390844946        1.01842468160736       -0.30937047330271
H            2.47436691259169        2.01405974062272       -0.42797821331180
H            3.62055655572362       -1.55065289970364       -0.19184087314227
H           -1.21093884060490        3.60829360602941        0.12788595624002
H           -2.64964313110992        3.18790543696431       -0.91698405296756
H           -2.80104037704763        3.11976090197971        0.89907233798694
H           -0.91681865182171       -3.49781580917027        0.81471095109788
H           -0.87963530451812       -3.46905857897784       -0.96108490829715
H           -2.39181987252205       -2.98513121499965       -0.08747474335169
H            1.57624486892932       -3.08998475768602       -0.00512775710424
