25
 energy: 55.684919685479 xtb: 6.6.1 (8d0f1dd)
C            2.97403926788767        1.20383619737637        0.07755906368609
N            2.20270848511871       -0.01440155362115        0.04453482607870
C            2.66105637373514       -1.26734502706923        0.04740478661789
N            1.59827386838042       -2.12373703134124       -0.00971235592883
C            0.44782859496429       -1.36944243487381       -0.01798294982025
C            0.83810699237589       -0.04405381294887        0.03580480767542
C           -0.18878185634807        1.04578277693650       -0.05329276029149
O            0.16605760170473        2.20521172214039       -0.17036030694428
N           -1.43591888359022        0.59604455669288       -0.04280970760153
C           -2.28893241599583        3.65210717619538        0.04288855623971
C           -1.85687415824502       -0.64570741878447       -0.03490635297247
O           -2.99817649313753       -1.02696075093527       -0.03750299239690
N           -0.82068339995049       -1.75152865501439       -0.04588512890807
C           -1.23260811060115       -3.12806946249976       -0.07346911526621
H            3.07055842271620        1.57223306233527        1.09864266073859
H            3.93931820469224        1.04513705429744       -0.38768191784253
H            2.43400955834452        1.96129304794694       -0.48944944841089
H            3.68899660952827       -1.55290860006223       -0.03534956873820
H           -1.26843513428590        3.94941085979428        0.14152028316363
H           -2.74883461328237        3.61466695686220       -0.91987206923226
H           -2.91110658508208        3.53190951426923        0.90541799107979
H           -0.88902299371794       -3.65266908977622        0.82272289610767
H           -0.85197155577171       -3.62933388655938       -0.96731058686983
H           -2.32989477665869       -3.10871000096746       -0.09656853913052
H            1.66590617651348       -3.13115548383385        0.01044867145216
