25
 energy: -6.064720795886 xtb: 6.6.1 (8d0f1dd)
C            3.22292947260976        1.18503076562755        0.08905461983345
N            2.30142564097288        0.09766663385736        0.03281993059730
C            2.60715585276876       -1.24993705309074        0.03325496496444
N            1.42072385078770       -1.94928140582864        0.00120303665276
C            0.39626783336674       -1.07360038366385       -0.01020106075604
C            0.91144157761318        0.21532634935273        0.01115209700567
C            0.09937948066216        1.36904150028938       -0.00891342107335
O            0.46944774903899        2.54769546331509       -0.01207900874133
N           -1.29198865733032        1.04367272322338       -0.03148743221039
C           -2.19849187007442        2.19480742099153       -0.04435955762441
C           -1.83529501062990       -0.20881362369664       -0.04828677423349
O           -3.03203027580908       -0.40894549542001       -0.07028914257606
N           -0.94478341985485       -1.31353916940794       -0.03868901721899
C           -1.45805604452259       -2.66449240457023       -0.06073883831676
H            3.68562789395396        1.25461475159994        1.07792773631660
H            4.00321903011339        1.06288206911793       -0.66107177746755
H            2.66345754637397        2.09970427017036       -0.10640099938542
H            3.58545594062627       -1.67117552618367        0.04347123760241
H           -1.59625376400262        3.10115033536291       -0.01826763926395
H           -2.81003533596628        2.17737139863739       -0.94809734505815
H           -2.86260212597076        2.15786318662777        0.81973709398696
H           -1.14444920683526       -3.21522617258636        0.83018427337248
H           -1.11956785588703       -3.19503990324865       -0.95474369737680
H           -2.54446114211699       -2.59029841546158       -0.07536920354047
H            1.36218777608946       -2.95452316823483       -0.01197448958233
