25
 energy: -42.145250478837 gnorm: 0.002379882262 xtb: 6.6.1 (8d0f1dd)
C            3.75770195974695        0.88557986796816        0.04829047326176
N            2.78797408225634       -0.17227452468563        0.00952417303265
C            3.02206311419562       -1.46743147401619       -0.07723765142069
N            1.88134376866143       -2.16457701710637       -0.06377469087086
C            0.77129973580397       -1.29225090803656        0.03645651019684
C            1.39987267980613        0.03361380963145        0.09275132717326
C            0.76919275892277        1.19343497681321        0.21022517796414
O            0.12504336855388        2.15148169573363        0.29743089651368
N           -3.22832356023089        1.52679011679654       -0.25550989795030
C           -3.36304540196897        2.92063230193788       -0.14754171692049
C           -3.49017571999182        0.41521397368129        0.06369505854374
O           -3.60757028037142       -0.72415530880134        0.23844656589130
N           -0.45796985906794       -1.53530039893545        0.06681668649387
C           -1.08188486302003       -2.81422833289841        0.01810573956193
H            3.83056634237292        1.30078288064356        1.05597869407767
H            4.73187019333032        0.50212286203154       -0.24818206638564
H            3.46386961379861        1.68358072720954       -0.63440907776622
H            4.00236018809222       -1.90115158801551       -0.15426769026264
H           -2.36567344639341        3.35704817392176       -0.06357509308359
H           -3.84118404658874        3.30481711138847       -1.05102631984081
H           -3.95803275275673        3.20275336874091        0.72369285186584
H           -0.62590564150487       -3.53602830613630        0.70216622635912
H           -1.04770550121269       -3.21770123147477       -0.99737267965048
H           -2.12590789723643       -2.66606898999873        0.29079630672107
H            1.81065267890400       -3.16844524479399       -0.13030818559592
