25
 energy: 0.000000000000 xtb: 6.6.1 (8d0f1dd)
C            3.23720163006194        1.16630919979326        0.08434469647475
N            2.29877817382611        0.07527477071623        0.03981603040599
C            2.58028210190900       -1.21425402444508        0.03006176031096
N            1.43813958087363       -1.93419271955128        0.00098261760884
C            0.39035688448383       -1.05887472636071       -0.00790371836672
C            0.93510056364412        0.21347819449412        0.01709077491437
C            0.09450143893243        1.40504303904423       -0.00410947031874
O            0.49712751527797        2.54126714362870       -0.00342325688240
N           -1.25076640035757        1.06271879480407       -0.03085478223738
C           -2.21907211982101        2.15522099834493       -0.05001256985998
C           -1.81739487048744       -0.20012725993278       -0.04692818574614
O           -2.99983886758376       -0.37846417018721       -0.07008878229737
N           -0.92618586207120       -1.30210215599479       -0.03682761578324
C           -1.46982264913417       -2.64643102187190       -0.06029820460571
H            3.71247264356769        1.21471455160235        1.06488849150277
H            4.00791497605742        1.03430808813993       -0.67357694370751
H            2.69910007168542        2.09770118228144       -0.09130154882931
H            3.56654120610678       -1.63682992603973        0.04233140067262
H           -1.67107961066214        3.09322851271934       -0.02552706933167
H           -2.82428953597071        2.09428624779827       -0.95318082946668
H           -2.87644029173232        2.07745725625962        0.81450067533302
H           -1.17061996399332       -3.19584890659852        0.83242232437030
H           -1.14560257411436       -3.17511610292205       -0.95688275822323
H           -2.55549792440841       -2.55659984320617       -0.07459039797972
H            1.38130855184625       -2.94313852034425       -0.01389874181052
25
 energy: -0.766755572389 xtb: 6.6.1 (8d0f1dd)
C            3.27201219819646        1.15842085804347        0.09471619573112
N            2.32378022224833        0.08776124279862        0.04342268400704
C            2.60855015936603       -1.24062213515715        0.02992775655027
N            1.43446095462928       -1.94233134595430       -0.00153050791122
C            0.40762141290601       -1.05237892804602       -0.00640066097197
C            0.94521615173482        0.22440371617226        0.02062869850189
C            0.11619091544572        1.40272095777863       -0.00138178547299
O            0.52419656702181        2.56420972305018        0.01236075343441
N           -1.25456199003951        1.06658194778160       -0.05045607226436
C           -2.24734027596552        2.14923551138933       -0.08191163634566
C           -1.81041658183337       -0.18779761123486       -0.04930855726620
O           -3.00619015531490       -0.37016808321561       -0.07288837505028
N           -0.92322724393943       -1.29035722500521       -0.03473540017906
C           -1.46452609891430       -2.63094675491790       -0.05912320680769
H            3.74325017820078        1.20222591951101        1.08001609639052
H            4.04556589761498        1.01099489826326       -0.66065032068548
H            2.73878464882424        2.08852985527414       -0.08916877688664
H            3.58459871294681       -1.67101699545868        0.03718315086337
H           -1.68573626076285        3.08891019407995       -0.05496851865873
H           -3.05539158615891        2.08854987063351       -0.87082464634791
H           -2.90005489565272        2.07100032309009        0.76022238010472
H           -1.16316143924087       -3.18333054014102        0.83285303303227
H           -1.13686543460056       -3.16125990548862       -0.95541200528718
H           -2.54953052339308       -2.53837324904401       -0.07434177358064
H            1.36498913461699       -2.94593364203064       -0.02119460875230
25
 energy: 14.583924708259 xtb: 6.6.1 (8d0f1dd)
C            3.32298926250795        1.13557464684381        0.10976519129431
N            2.35061595783832        0.09408782879085        0.04841081035343
C            2.63195042655854       -1.26583502203852        0.02923333512125
N            1.42927253847050       -1.94260641938466       -0.00598107138018
C            0.42685667753215       -1.04050234108925       -0.00568566635498
C            0.95670619267588        0.24065393241266        0.02605372274294
C            0.13865844848991        1.40401951807710        0.00041079217658
O            0.54694361803333        2.57690833992415        0.04293394155347
N           -1.26746367119781        1.08308211138000       -0.09285018387091
C           -2.29792627566334        2.14512605274447       -0.12180263691910
C           -1.79605294969110       -0.16788414334830       -0.06247157959481
O           -2.99704660395628       -0.36033013127546       -0.07556437849964
N           -0.91621189065710       -1.26899363395373       -0.03259785553015
C           -1.45386071448661       -2.60680499825695       -0.05627562797735
H            3.78901639754967        1.17778736315585        1.10017208921465
H            4.10533714181516        0.96865536454338       -0.63610734309783
H            2.81024700812710        2.07367612934371       -0.08658011073574
H            3.59810347850991       -1.70667174358484        0.02727412166845
H           -1.72613209276685        3.08426940711754       -0.12028838386042
H           -3.34765055103942        2.06092365019087       -0.76071136296734
H           -2.92718343890284        2.06132809385194        0.72318999358474
H           -1.15206312001466       -3.16260392748307        0.83492827245731
H           -1.12410962375831       -3.13924689149126       -0.95224594406480
H           -2.53831699079410       -2.51189858233017       -0.07288942856288
H            1.34953544275629       -2.94368600196805       -0.03328680060370
25
 energy: 26.988304688915 xtb: 6.6.1 (8d0f1dd)
C            3.37041507477929        1.10777733346309        0.12256829094011
N            2.36823199319928        0.09263478069819        0.05104672846529
C            2.63961507209869       -1.27671386332251        0.02676002725879
N            1.42881506671294       -1.93750214937390       -0.01287412248641
C            0.43832879122358       -1.02827721489484       -0.00737578904407
C            0.96651865022805        0.25529646997676        0.02967451991580
C            0.14579841684625        1.41747175894969        0.00346645589075
O            0.55265144085531        2.58841270731333        0.06859116000253
N           -1.28418761252786        1.10316316685621       -0.12604065494572
C           -2.36053249919122        2.14001822931798       -0.14994417046803
C           -1.78821016351907       -0.15410038010687       -0.07104546293525
O           -2.98885640289879       -0.35969716546535       -0.07306013558734
N           -0.90666412660059       -1.24957606091965       -0.03097828253670
C           -1.44226003842419       -2.58620339494838       -0.05281764039649
H            3.82970746309255        1.14434518418816        1.11762766159820
H            4.16218267933929        0.91677102376920       -0.61016709770956
H            2.89106196479138        2.06172468185249       -0.08606507968288
H            3.60206976422310       -1.72812491904977        0.01370250205833
H           -1.80051400521136        3.08574256284610       -0.18214362155276
H           -3.53322438835821        2.02965202652871       -0.70276565718478
H           -2.94382096853306        2.05237090516674        0.72546089458845
H           -1.13917737169062       -3.14058926282289        0.83871353341193
H           -1.11252707264294       -3.11784213273914       -0.94933051406905
H           -2.52657621351922       -2.48878276420373       -0.06843576053937
H            1.34336915366367       -2.93894292090749       -0.04753388884448
25
 energy: 31.677371885299 xtb: 6.6.1 (8d0f1dd)
C            3.39132072165101        1.09231217682772        0.12844446376494
N            2.37365288619840        0.09093015436724        0.05026763322371
C            2.63845416216096       -1.27524046493262        0.02550585902636
N            1.43103158161707       -1.93256061505286       -0.01759710584492
C            0.44138887944314       -1.02234198310983       -0.01017174005449
C            0.97040260859818        0.26168679001737        0.03026809837504
C            0.14719570163570        1.42642674389829        0.00655044762872
O            0.55203112889693        2.59113440808772        0.08252552493600
N           -1.29308162846701        1.11141713959850       -0.13977216793434
C           -2.38955632019228        2.13918166474547       -0.16141146224701
C           -1.78698139944507       -0.15081392407842       -0.07294462251677
O           -2.98551083042557       -0.36422289350700       -0.06658645173749
N           -0.90139686625978       -1.24153495482796       -0.03061546806729
C           -1.43576736485890       -2.57906735970545       -0.05088034827507
H            3.84357680995272        1.12501651848334        1.12701883985854
H            4.18695384788192        0.88521231050076       -0.59575094926482
H            2.93400726895691        2.05521499827653       -0.08803427056765
H            3.60069938624715       -1.73018071770627        0.00438140397402
H           -1.84215254711470        3.08932487084143       -0.20813746359510
H           -3.60161189437986        2.01950545151578       -0.68305353754208
H           -2.94926661715261        2.05486107996603        0.72395281175505
H           -1.13097746568445       -3.13119453627303        0.84092161068845
H           -1.10677676377893       -3.10952011904718       -0.94787420385368
H           -2.52024520926413       -2.48190697083666       -0.06483475657574
H            1.34482459171948       -2.93461116587676       -0.05513824900709
25
 energy: 31.595641577749 xtb: 6.6.1 (8d0f1dd)
C            3.39264930139744        1.08984185960058        0.12930414405706
N            2.37341375167986        0.09038189278238        0.04886142149028
C            2.63626969615612       -1.27187748681721        0.02660677001483
N            1.43231961857153       -1.93092577821216       -0.01859167766564
C            0.44048802742658       -1.02173183518872       -0.01218329007814
C            0.97057785018639        0.26210929405206        0.02895466779228
C            0.14801914869696        1.42852657291981        0.00641725730128
O            0.55132235985005        2.59049159423228        0.08826948279617
N           -1.29462202939945        1.11112641428156       -0.14282367915288
C           -2.39224159658796        2.13941719979766       -0.16253973422630
C           -1.78836382029168       -0.15148028375076       -0.07318053638908
O           -2.98573151490191       -0.36596707855484       -0.06347829381454
N           -0.90095526911550       -1.24094483916127       -0.03143956284193
C           -1.43486335052081       -2.57947586022459       -0.05081105507927
H            3.84153094526238        1.12312911923120        1.12913897856989
H            4.18855670305155        0.87919822686079       -0.59227337256699
H            2.94011549699612        2.05333075767000       -0.08962774187407
H            3.59919559194460       -1.72669583627007        0.00187789142106
H           -1.84623267868893        3.08882656531819       -0.21450484486623
H           -3.60547017029700        2.01908382311240       -0.68058250717946
H           -2.94548766220168        2.05924300979931        0.72601789486947
H           -1.12936329311607       -3.13055927732798        0.84115927531020
H           -1.10589342402779       -3.10960638693908       -0.94774023564894
H           -2.51944120186139       -2.48320519774053       -0.06423704368697
H            1.34642218772685       -2.93320786729886       -0.05556031240475
25
 energy: 30.820377754347 xtb: 6.6.1 (8d0f1dd)
C            3.39203635235453        1.08940045001292        0.12933556400509
N            2.37300407048942        0.09012013721084        0.04698691807091
C            2.63436289866712       -1.26900344398542        0.02873931637762
N            1.43313767929873       -1.93004049045151       -0.01913770565119
C            0.43924190893170       -1.02176957293150       -0.01398803183113
C            0.97025832919092        0.26209911402343        0.02767952901476
C            0.14933349161073        1.42977899815467        0.00685612737552
O            0.55032847626026        2.59034765278471        0.09441306770082
N           -1.29564709818457        1.10956172191363       -0.14448353857640
C           -2.39233204497757        2.13924893071500       -0.16290703066809
C           -1.79013020313523       -0.15234170536811       -0.07269798534268
O           -2.98659656239979       -0.36724904404694       -0.06066714802431
N           -0.90127234093602       -1.24119913839891       -0.03217160149177
C           -1.43479155036716       -2.58051587155539       -0.05101088994321
H            3.83836519576888        1.12373068611195        1.13011184313150
H            4.18848664126553        0.87696038116209       -0.59011666657429
H            2.94173988144906        2.05279106354545       -0.09130556920917
H            3.59783534421722       -1.72383494735239       -0.00117653122491
H           -1.84635382761027        3.08764745964382       -0.21945995324476
H           -3.60006665780452        2.01797760757798       -0.67995422791072
H           -2.94177007689249        2.06377223345234        0.72797838011765
H           -1.12883670556175       -3.13092820461761        0.84109121004608
H           -1.10565515454562       -3.11035544958102       -0.94788394758826
H           -2.51939184773833       -2.48472810818072       -0.06413043813398
H            1.34692846858548       -2.93244185766718       -0.05506679427774
25
 energy: 30.153109392206 xtb: 6.6.1 (8d0f1dd)
C            3.39161075159954        1.08975476586883        0.12931027883352
N            2.37306373319669        0.09014545187664        0.04576083638585
C            2.63380041855078       -1.26822121917221        0.03114166130192
N            1.43328856631974       -1.92985682526649       -0.01925808519681
C            0.43875045629807       -1.02184120784548       -0.01482126903712
C            0.96993931012437        0.26226899497271        0.02699476192395
C            0.15034677937158        1.43015708908622        0.00705230888747
O            0.54933989451249        2.59077858912202        0.09705762566085
N           -1.29651047780470        1.10853179542523       -0.14532988677401
C           -2.39256291148855        2.13883332100233       -0.16329345819613
C           -1.79107211207697       -0.15262517466196       -0.07223605477762
O           -2.98726347358936       -0.36804497602494       -0.05920464860398
N           -0.90154308368270       -1.24145753686795       -0.03245456481229
C           -1.43488980104813       -2.58096340833746       -0.05122513020343
H            3.83702353824541        1.12450552402332        1.13048580235200
H            4.18866021344745        0.87710001299353       -0.58924987281091
H            2.94147747129283        2.05300385330142       -0.09186664234042
H            3.59724322534964       -1.72337467605521       -0.00379373263232
H           -1.84615699483740        3.08675486721015       -0.22209493518653
H           -3.59474173643254        2.01656309116738       -0.67937712137620
H           -2.93989097196765        2.06637110916137        0.72951592604011
H           -1.12894127532556       -3.13130668008382        0.84091595147888
H           -1.10561692620658       -3.11068533341106       -0.94809065142629
H           -2.51947016914349       -2.48513742011366       -0.06436343385669
H            1.34633024323135       -2.93222540519877       -0.05454176948644
25
 energy: 29.198424476739 xtb: 6.6.1 (8d0f1dd)
C            3.39131814679124        1.09035825996880        0.12947887230154
N            2.37339627510583        0.09026711694252        0.04432683919114
C            2.63368736426775       -1.26823970251817        0.03591375380646
N            1.43320593456033       -1.92977716567885       -0.01914170199606
C            0.43850729942368       -1.02185480355303       -0.01561838706388
C            0.96948530528446        0.26271327770367        0.02626264304080
C            0.15165170609629        1.43033700489497        0.00697460930822
O            0.54764524651637        2.59165230993705        0.09830222424669
N           -1.29802392064937        1.10754915442114       -0.14634186414423
C           -2.39373655538491        2.13811536766179       -0.16411533742278
C           -1.79195404698364       -0.15267077385623       -0.07175125775080
O           -2.98799997838242       -0.36925426725525       -0.05783565200167
N           -0.90174145404570       -1.24174953536442       -0.03272650903293
C           -1.43495130438416       -2.58120642208394       -0.05158303332738
H            3.83627717887355        1.12515617631635        1.13091098090573
H            4.18910275533034        0.87822657537202       -0.58857075760838
H            2.94062417436773        2.05346993820553       -0.09175687129479
H            3.59671244733444       -1.72388377312265       -0.00832939118516
H           -1.84672630433705        3.08574354741915       -0.22504323764994
H           -3.58720311194309        2.01427820110470       -0.67765423647559
H           -2.93769063805878        2.06957670652994        0.73178149421085
H           -1.12926558303571       -3.13172273182834        0.84058422849697
H           -1.10554879092058       -3.11089355736696       -0.94844755393891
H           -2.51951039567999       -2.48513522625909       -0.06487960960951
H            1.34495291778965       -2.93202707541855       -0.05370634885906
25
 energy: 28.815257841475 xtb: 6.6.1 (8d0f1dd)
C            3.39139430715406        1.09050368930679        0.12979614969417
N            2.37355690024764        0.09033790602284        0.04413419078204
C            2.63402394575520       -1.26893946926659        0.03948865423134
N            1.43298499729773       -1.92977242587587       -0.01883206226621
C            0.43868198962446       -1.02178987349964       -0.01578662400643
C            0.96931361763668        0.26297675261871        0.02609420437605
C            0.15194458745945        1.43020127819357        0.00648736251908
O            0.54680779925765        2.59209195469335        0.09682209021600
N           -1.29883138657281        1.10761300328421       -0.14667764646115
C           -2.39497045194295        2.13780635727419       -0.16471678656921
C           -1.79197329898537       -0.15246761290059       -0.07193399613631
O           -2.98808371855462       -0.36982496109813       -0.05803626195086
N           -0.90166212999013       -1.24179310895065       -0.03290112824619
C           -1.43488269555773       -2.58104504994647       -0.05179173580066
H            3.83675788315453        1.12487287763369        1.13108222358580
H            4.18926873234114        0.87905049375472       -0.58864150155170
H            2.94019060030238        2.05366862242268       -0.09099953856215
H            3.59666504599946       -1.72451590532220       -0.01120631182460
H           -1.84772261741072        3.08558069798851       -0.22604097185849
H           -3.58463741818773        2.01316549687599       -0.67577526891516
H           -2.93653886315092        2.07066787967821        0.73312847916648
H           -1.12940607585939       -3.13171454017374        0.84039669299652
H           -1.10549981099234       -3.11084597119388       -0.94863814110241
H           -2.51945255693605       -2.48483643092815       -0.06518597966534
H            1.34428528584665       -2.93196305841942       -0.05323219650329
25
 energy: 28.677917113700 xtb: 6.6.1 (8d0f1dd)
C            3.39150475289745        1.09039342790157        0.13013161516041
N            2.37346552235092        0.09037154953841        0.04463064848495
C            2.63436667878727       -1.26967176634319        0.04283775967576
N            1.43274736420001       -1.92975650087801       -0.01847003961372
C            0.43890553144955       -1.02171960361281       -0.01581930155078
C            0.96928267402375        0.26304662315570        0.02615988373063
C            0.15158907464917        1.42996175449580        0.00591157852948
O            0.54648578511000        2.59219237556432        0.09460528790282
N           -1.29915133295157        1.10806897213093       -0.14656777589122
C           -2.39603554275114        2.13772874044655       -0.16514285141922
C           -1.79169162169877       -0.15228395666591       -0.07249931588665
O           -2.98791093411696       -0.37002404806850       -0.05903699358203
N           -0.90151563852077       -1.24174725595921       -0.03314767584405
C           -1.43478505181405       -2.58081346740204       -0.05191598416648
H            3.83755832096249        1.12424285979352        1.13110405433688
H            4.18911494375212        0.87943863023289       -0.58901457811547
H            2.94006183910243        2.05369806705744       -0.09015518836728
H            3.59677406966841       -1.72469950882186       -0.01372244815330
H           -1.84873827033716        3.08575652479581       -0.22626604299443
H           -3.58408377758300        2.01270520623967       -0.67392742179904
H           -2.93572711768226        2.07097918690489        0.73393715304254
H           -1.12936430003360       -3.13149676473923        0.84031218185540
H           -1.10549814199337       -3.11079334793958       -0.94871894146449
H           -2.51937892804048       -2.48459194440850       -0.06529928912420
H            1.34423876850583       -2.93195715124655       -0.05289241859921
25
 energy: 28.613376729335 xtb: 6.6.1 (8d0f1dd)
C            3.39150105387224        1.09014530453581        0.13044645138367
N            2.37305438638043        0.09042469843466        0.04567166019797
C            2.63449330666509       -1.27014105335338        0.04707878494452
N            1.43251389107456       -1.92971054484063       -0.01816442654650
C            0.43899788193910       -1.02165085716738       -0.01605346499855
C            0.96932720836373        0.26292568729512        0.02625707867356
C            0.15058342182470        1.42969587104068        0.00539515739198
O            0.54652310577729        2.59192737548100        0.09265347034420
N           -1.29902627715746        1.10859121456868       -0.14612166222300
C           -2.39685500579677        2.13779366865194       -0.16547419921125
C           -1.79138106057120       -0.15227290962234       -0.07329783575425
O           -2.98769613132021       -0.36991857838156       -0.06048782591448
N           -0.90142459703847       -1.24166303059998       -0.03359435378238
C           -1.43470805452090       -2.58066716377831       -0.05201172028789
H            3.83824444183906        1.12362845378846        1.13106314429543
H            4.18865412573294        0.87924873439916       -0.58940453453221
H            2.94020613502184        2.05360925273807       -0.08954891175783
H            3.59686191845853       -1.72409974687607       -0.01706340265979
H           -1.84953380436389        3.08598253744850       -0.22655265186897
H           -3.58415755589389        2.01249578598252       -0.67214820973161
H           -2.93475469694541        2.07125861768081        0.73463974239332
H           -1.12911263699797       -3.13116220759604        0.84027833433500
H           -1.10556253399386       -3.11084674295043       -0.94874489243188
H           -2.51932644751509       -2.48456545295330       -0.06524323868644
H            1.34479259310185       -2.93200031175384       -0.05253859742530
25
 energy: 28.561780401173 xtb: 6.6.1 (8d0f1dd)
C            3.39137882475618        1.09008964033449        0.13044520515350
N            2.37276457019188        0.09050145642186        0.04611733019187
C            2.63424720179207       -1.26988336254328        0.04954613341906
N            1.43248207448655       -1.92969934833153       -0.01827659601948
C            0.43884695623409       -1.02162972631618       -0.01654040623474
C            0.96935616892696        0.26279101176493        0.02610889468435
C            0.14990557371501        1.42968161646355        0.00555950106417
O            0.54666319489410        2.59159607279369        0.09332867717147
N           -1.29869122782087        1.10848037322940       -0.14591458384619
C           -2.39676667335267        2.13784613512944       -0.16553084395613
C           -1.79146328576158       -0.15251371591171       -0.07343194616882
O           -2.98776553717964       -0.36972872628789       -0.06065958687750
N           -0.90150624188350       -1.24164224724525       -0.03389342567049
C           -1.43472317726967       -2.58078868596994       -0.05205192389704
H            3.83803461506143        1.12382385705149        1.13107027646339
H            4.18845540468249        0.87867142912164       -0.58924930858819
H            2.94045940680757        2.05354955594415       -0.08988168158975
H            3.59668536347389       -1.72328582329394       -0.01938144357127
H           -1.84941668277876        3.08587087706883       -0.22714578134275
H           -3.58379122018073        2.01236217815746       -0.67196345185284
H           -2.93432779977742        2.07182184030166        0.73471168446487
H           -1.12889598226266       -3.13107377090705        0.84026327181626
H           -1.10560625648480       -3.11097869413470       -0.94875597499550
H           -2.51933546110307       -2.48478289542356       -0.06514343244927
H            1.34522485876942       -2.93205044524542       -0.05229669122164
