25
 energy: -42.090387104820 gnorm: 0.006027209292 xtb: 6.6.1 (8d0f1dd)
C            3.15751162734100        1.09733526659345        0.01720717458802
N            2.19378499009800        0.03223414863809       -0.00048565637907
C            2.47567322463156       -1.27408903323458       -0.00859077628272
N            1.29960630449143       -1.94736861811359       -0.00755166643209
C            0.26024489200215       -1.06176419262651        0.00064360078969
C            0.83018618798401        0.20511132043358        0.00627352489556
C            0.01484745518549        1.39940871262239       -0.00174804387307
O            0.42141629093540        2.53803061591324       -0.01400316856346
N           -1.34629814365411        1.08831542740942        0.00173647760335
C           -2.28565569983300        2.19838462608786       -0.00147280220931
C           -1.93085172421646       -0.16864172351914        0.00419354032619
O           -3.12225803966349       -0.31807099842384        0.00717535337885
N           -1.06601048600066       -1.27718398302144        0.00142339410649
C           -1.62923920087734       -2.61049259962762       -0.00216170137713
H            3.65981498696011        1.13290685592687        0.98560813913847
H            3.90711853238672        0.93123134452666       -0.75591295563147
H            2.64819774536876        2.04485552139757       -0.15380319358764
H            5.34057584052999       -1.82929535657047       -0.01709787284192
H           -1.71675427812333        3.12601882678164        0.00604426240985
H           -2.91739909037654        2.14883065425719       -0.88944758350012
H           -2.93095107574693        2.14134682647199        0.87613588831067
H           -1.31072340794868       -3.16025673930604        0.88470008120353
H           -1.32421596037066       -3.15005313910282       -0.90006396590417
H           -2.71456893464524       -2.51225705387286        0.00632458302772
H            1.24637947764179       -2.95629816804101       -0.01395501529621
