  25
        -42.17039535
 C          3.5457817430        0.7211169329        0.0141905317
 N          2.4521392679       -0.2131508202       -0.0000750996
 C          2.5350280001       -1.5441458427       -0.0058747960
 N          1.3006528701       -2.0868617822       -0.0070088683
 C          0.3827584177       -1.0699334067       -0.0008455282
 C          1.1235514186        0.1210364853        0.0035567467
 C          0.4480251730        1.3938408386       -0.0020197058
 O          0.9909913521        2.4848166275       -0.0116085444
 N         -0.9300241965        1.2364405277        0.0016560063
 C         -1.7495113789        2.4283063873       -0.0002377340
 C         -1.6306654246        0.0038563699        0.0045624256
 O         -2.8436101322        0.0336494550        0.0094521089
 N         -0.9260292594       -1.1516617585        0.0000268594
 C         -4.1977152999       -2.6533706717       -0.0057217129
 H          4.0863454187        0.6603734961        0.9604109692
 H          4.2395189008        0.5078298054       -0.7993628826
 H          3.1451046694        1.7286251017       -0.1003933201
 H          3.4523272433       -2.1001550546       -0.0103383576
 H         -1.0927629663        3.2975150984        0.0049196518
 H         -2.3873462945        2.4405075975       -0.8865428500
 H         -2.3966870204        2.4358605256        0.8792439990
 H         -4.1150977607       -3.1980663809        0.9138321614
 H         -4.1340411445       -3.1715418634       -0.9424050665
 H         -4.2754730137       -1.5803099952        0.0106883876
 H          1.0789644285       -3.0722340768       -0.0114515062
