25
 energy: 2.510016190900 xtb: 6.6.1 (8d0f1dd)
C            3.37968603514925        1.14174641019084        0.11064626796103
N            2.38832235170551        0.09611670697734       -0.00434728627663
C            2.60607384773609       -1.30963410872213       -0.05021099208533
N            1.36320692919545       -1.90192984180240       -0.07058304537366
C            0.41146044936409       -0.96948587889351        0.02505338260309
C            0.97024013572349        0.30126698164313        0.07012139166967
C            0.08609354785555        1.42345567440622        0.13374315510280
O            0.36788973457486        2.61527830902269        0.21406417453755
N           -1.34442532667086        1.05836198296390       -0.03431474661384
C           -2.37331719203304        2.06679437433818       -0.16927050643620
C           -1.81884803497598       -0.19225575062748       -0.21276264817515
O           -2.95969974747955       -0.48060815154616       -0.50857856250445
N           -0.91993364181319       -1.21663779170943        0.07524145913454
C           -1.44026831388758       -2.55736350238285        0.08008410914881
H            3.90880865089062        1.15271681380993        1.07573826326764
H            4.16658144710461        1.07682812573638       -0.65763284810278
H            2.87854057158477        2.10464876477079        0.01008119205091
H            3.48272632951119       -1.90164226939450       -0.25599263367907
H           -1.90099414015521        3.01964239614054       -0.00857200567836
H           -2.84537480462826        2.01011204474937       -1.15697617859961
H           -3.13365208429421        1.91903236746543        0.60133984049074
H           -0.97283429806232       -3.12357820323521        0.88607891640552
H           -1.29604628927503       -3.03335066314298       -0.87898722876960
H           -2.51428059752510       -2.46462375032147        0.23510593773848
H            1.20739716321453       -2.89648218645772       -0.09704605390359
