25
 energy: 43.017616727113 xtb: 6.6.1 (8d0f1dd)
C            3.54215326956381        1.05036162686179        0.19315532502331
N            2.41124502814407        0.18542034082067       -0.08583916596642
C            2.55690047276391       -1.15554977517135       -0.42137612322636
N            1.34986713762127       -1.78165409811437       -0.30101034234338
C            0.45579917129244       -0.88580339925274        0.14006607362964
C            1.01013467173140        0.39278987272142        0.24639593292368
C            0.11185290861181        1.50754734787759        0.40753456970333
O            0.29740278963971        2.67036073230099        0.66986103019827
N           -1.47843625280424        1.21569039633335       -0.00486866162776
C           -2.65899164823966        2.03980952863929       -0.34698628696565
C           -1.59467705780343       -0.01605145010071       -0.48765584970464
O           -2.26362676484644       -0.38251879983855       -1.42119615866021
N           -0.87550180846487       -1.04833314761234        0.29842088516323
C           -1.42246466765542       -2.39590097643238        0.29622457843551
H            3.94969974675815        0.93912158685384        1.21000279641604
H            4.36192166810293        0.87947697365668       -0.50773439837103
H            3.25306196291493        2.08784351552077        0.08322059566824
H            3.40909839898503       -1.62680416313536       -0.84407530485376
H           -2.56394328199952        2.96583718821115        0.18856203029635
H           -2.89827196697670        2.27251513141531       -1.39832994483350
H           -3.50795218656837        1.51656326012714        0.06218705200014
H           -0.69897146701816       -3.13040913401946        0.62183278212902
H           -1.81352665823111       -2.72033957022808       -0.65135210578970
H           -2.28220192634491       -2.39462897402664        0.94267534762348
H            1.09491558027363       -2.75925594186043       -0.38949830350753
