25
 energy: 85.767886809370 xtb: 6.6.1 (8d0f1dd)
C            3.68920501985694        0.84215875254600        0.23356282904409
N            2.57910298908908       -0.01123995908094       -0.04748314093881
C            2.71302702109732       -1.30987045924539       -0.54659842643236
N            1.46043793183909       -1.90274656544760       -0.32071571106775
C            0.55043102190238       -1.05856037222582        0.26297564446819
C            1.26080032306076        0.21397594208135        0.40486942799796
C            0.71732280424172        1.35123065710180        0.79742293085877
O            0.35226620893350        2.40375474105000        1.16665050822804
N           -2.01090671489918        1.60265719201536       -0.19341579532447
C           -3.35235116317031        2.03757683172769       -0.43393620647333
C           -1.59411503439224        0.71393430138738       -0.90126181005206
O           -1.43163571407408        0.03506428510748       -1.82423738650345
N           -0.65573518226099       -1.16421894800929        0.62292896510717
C           -1.43638412508850       -2.35855821203070        0.54888211865109
H            3.82803200334538        0.95693426762627        1.30178326397152
H            4.54850648584220        0.37827277795637       -0.23126831648593
H            3.61834574488322        1.85645703022419       -0.17090010576244
H            3.44996817208663       -1.86705297386989       -0.01772415490559
H           -3.45243501710357        2.80703698405057        0.30179286909794
H           -3.52035738856245        2.40620224382505       -1.44923641531719
H           -3.94764259383539        1.16005886018719       -0.31689168727832
H           -0.86764360174086       -3.24605762018672        0.27169164003900
H           -2.24497957053743       -2.34068078988385       -0.18084412687772
H           -1.92737233663263       -2.44690676400054        1.51396049152888
H            1.24826111836183       -2.83000379714268       -0.60584375215606
