25
 energy: 83.659287157432 xtb: 6.6.1 (8d0f1dd)
C            3.62620476036860        0.90479684161535        0.25706673143173
N            2.52017243323295        0.04360674296978       -0.05249910730799
C            2.62675125073084       -1.25266121275816       -0.51441201933905
N            1.40730865739337       -1.85719703924108       -0.30839455091167
C            0.49666062696136       -0.98484355564958        0.21506245265711
C            1.18252112699745        0.27839207509034        0.36229358841539
C            0.59547182596488        1.42901859495647        0.67416746642689
O            0.28790936084970        2.52565730601315        0.94141187551159
N           -1.85279324391798        1.35593470219427       -0.07864850439299
C           -3.06347068133033        2.03537992474334       -0.42591587766066
C           -1.57115160253399        0.36192238502278       -0.74850905899506
O           -1.63813754053691       -0.23370414413739       -1.76014173883292
N           -0.75555296683865       -1.08484565083751        0.47563026430549
C           -1.41774328133426       -2.36589578454968        0.43333752297294
H            3.84703154171083        0.85986926170777        1.33427985593787
H            4.47695494005161        0.60942487342883       -0.34766399042548
H            3.45122492692458        1.94968333983640       -0.00383082072482
H            3.52416053048205       -1.82253938797959       -0.45910171402247
H           -3.04461221188984        2.88325355699438        0.23440634466399
H           -3.21488510977818        2.34518212970883       -1.46765380809975
H           -3.80928606492316        1.31132281586434       -0.19844304723649
H           -0.73081322879548       -3.20788351507854        0.40723771309788
H           -2.06831964429865       -2.52256134474872       -0.41764014655496
H           -2.08576571587301       -2.40898936824286        1.27964397523274
H            1.16627969591982       -2.79393212391949       -0.56985486470459
