25
 energy: 72.149507565122 xtb: 6.6.1 (8d0f1dd)
C            3.84246161406248        0.78263276808900        0.15568047929536
N            2.75390613469887       -0.13275829312579       -0.07674319797742
C            2.84075774998769       -1.41484050028305       -0.63467202692037
N            1.61227999347908       -2.04208907463290       -0.32168236680797
C            0.75463497114292       -1.20334384246120        0.35749578965378
C            1.48324686700325        0.06365904905691        0.49956126210643
C            1.01656546734432        1.18742452545908        1.00406364942730
O            0.67023424580947        2.25215811169005        1.36706317914347
N           -2.55055374762455        1.68520800938174       -0.37760307986822
C           -3.87076034108024        2.08214497844007       -0.56377167825877
C           -1.67225002663272        1.16905270678383       -0.97936214674961
O           -0.78310785807508        0.74909924543066       -1.58823599749963
N           -0.40503237890229       -1.34014915621965        0.83660487042880
C           -1.29778784236017       -2.43225498607475        0.64653492486168
H            3.79781015344173        1.19975539551288        1.16259472331445
H            4.73409887922092        0.19351949969805        0.02941748224539
H            3.85568764225967        1.66739073845879       -0.50310777496164
H            3.63041931230456       -1.99641305529512       -0.18237407594917
H           -4.01238587566838        2.84162940245391        0.17825966992851
H           -4.07234228795094        2.38412367771890       -1.59317535590850
H           -4.48198100094806        1.23765805220178       -0.29617216358406
H           -0.84140167624230       -3.35687397508930        0.27820244128099
H           -2.13354368702731       -2.17795222051874       -0.02783201710376
H           -1.67257343682633       -2.58255436086183        1.64978454765166
H            1.22218358454282       -2.82910232534081       -0.80582515607936
