25
 energy: 30.539364631396 xtb: 6.6.1 (8d0f1dd)
C            3.51550778381436        1.10491209132734        0.15358096653813
N            2.40331846419690        0.20462251320297       -0.11918108292532
C            2.57411987618569       -1.16074793442031       -0.39228587164450
N            1.35694272082191       -1.79255009511527       -0.26145588192302
C            0.45749255463904       -0.87829183265644        0.12161019627344
C            0.99658526131256        0.40146373181393        0.19676698107966
C            0.06692565740489        1.50898663583198        0.34889810368551
O            0.27743985872488        2.68769295386832        0.54329948856309
N           -1.43918255720597        1.17880930568713        0.01696752335740
C           -2.57367976420566        2.05890360039624       -0.30819602871133
C           -1.63476871891007       -0.06898947163183       -0.42932449553228
O           -2.46791981419306       -0.42363842962493       -1.22552595310771
N           -0.87644163825877       -1.07856332685924        0.27168682892894
C           -1.41131824943778       -2.42762825707591        0.24738374089329
H            4.00928473176912        0.99621782813080        1.13360140302661
H            4.31915234620666        0.99905610747639       -0.58070425008194
H            3.15598096659856        2.12505027315989        0.10444447639796
H            3.41142495202846       -1.61890433297544       -0.88657676314416
H           -2.37506353716189        3.01159259545257        0.14054904758986
H           -2.84532140883412        2.22213309172916       -1.36703047417648
H           -3.43409520167711        1.65020690147376        0.20408311647138
H           -0.74360436865305       -3.11635237560989        0.74595668552870
H           -1.65331674721380       -2.80318345982734       -0.73037378830152
H           -2.36451392823717       -2.39469381224549        0.74739076641533
H            1.08702624582275       -2.77140118828433       -0.30141324609265
