25
 energy: 19.193626651928 xtb: 6.6.1 (8d0f1dd)
C            3.48877590286962        1.13007066262268        0.13663963934006
N            2.41729716581582        0.16840517103418       -0.08689290106866
C            2.59579207934455       -1.22300536221246       -0.25995569221568
N            1.35808600440929       -1.82872122209315       -0.18654911934758
C            0.44839957655609       -0.88909269167689        0.08869389089150
C            0.99702783602843        0.38572999245744        0.13348255009331
C            0.07008888254575        1.49839000269957        0.26928615504451
O            0.29175726089860        2.68528224604148        0.43383457401171
N           -1.39326086565055        1.15294843130806       -0.00792211885344
C           -2.50199307143479        2.07249589931898       -0.26587334310401
C           -1.69817159583968       -0.10863046911339       -0.35965907826563
O           -2.67124944369834       -0.45322218576304       -0.98761267380022
N           -0.88325630347245       -1.11305467703936        0.21988350191785
C           -1.40932664602353       -2.46095153906180        0.19913116529229
H            4.04921547497619        1.05644498732455        1.08643881344000
H            4.27485694259223        1.07798006217572       -0.62790221878721
H            3.06109837146716        2.12805958288707        0.11347750625983
H            3.43004954787806       -1.75125689650812       -0.68798952820713
H           -2.20206364546667        3.03860990688697        0.08410513556128
H           -2.83417500681073        2.14124637271583       -1.31431092079911
H           -3.34301056664992        1.76471266103270        0.35146040744857
H           -0.80899781784722       -3.09796784341251        0.83978938202883
H           -1.50995125917156       -2.88314674310129       -0.78524707556547
H           -2.42621003654084       -2.39958346865380        0.55920021749902
H            1.11545923083251       -2.81267566914633       -0.21376818144245
