25
 energy: 61.347274568628 xtb: 6.6.1 (8d0f1dd)
C            3.91235888082805        0.71816749128563        0.11126545123693
N            2.80664788328994       -0.18564645470398       -0.02925710065710
C            2.80751331792668       -1.41703992919353       -0.63895363923718
N            1.60092757471857       -2.01812739186137       -0.33860382037884
C            0.78263063454583       -1.19382018170825        0.40664563632513
C            1.56782018234024        0.03065470274831        0.58582819511358
C            1.13289782438032        1.17875585204066        1.05447642839867
O            0.77802128072265        2.19181607294395        1.53511712970214
N           -2.82445410897047        1.54248426547715       -0.57157733950338
C           -4.09046803134434        2.10462535220462       -0.69058106036250
C           -1.71838670731201        1.33232915904720       -0.91867018071631
O           -0.62424683426449        1.04040434514755       -1.15597598704531
N           -0.36233534828187       -1.37587102145479        0.91532899070225
C           -1.23220706045330       -2.48052203002416        0.65766291638444
H            3.99600180157439        1.09024796348940        1.13583564170369
H            4.80786910738234        0.16862016935240       -0.14081083056318
H            3.82439073081539        1.60209721720106       -0.53385074088053
H            3.70015468567675       -2.02112504764981       -0.65210882012221
H           -4.17204574251482        2.94656680336468       -0.01645970685142
H           -4.30283117243981        2.38885334243355       -1.72147789871400
H           -4.77921418594174        1.34606142424610       -0.34922153765092
H           -0.79042594569867       -3.46100079115212        0.44707548808066
H           -1.86999230548755       -2.24182507764586       -0.20401414216201
H           -1.83705380945339       -2.58482454050411        1.55071451406288
H            1.28713441605030       -2.91235717653748       -0.68617598742488
