25
 energy: 69.687162375396 xtb: 6.6.1 (8d0f1dd)
C            3.58468939481991        0.97679038414292        0.23091187605697
N            2.46399224773651        0.11593210208135       -0.05848801949070
C            2.58443147191570       -1.20011661898297       -0.46608490096841
N            1.37598101720442       -1.81008361507736       -0.30244676106607
C            0.47516919639934       -0.92366307104678        0.16459018170188
C            1.08920506757162        0.34428402186091        0.30109239853859
C            0.33793694767044        1.48394813896510        0.50279951940625
O            0.32750667912658        2.62671434934282        0.81283631183814
N           -1.66451770522380        1.23965213626460        0.00226995788793
C           -2.83086708985537        2.01662415658844       -0.38865951359751
C           -1.57101213399559        0.08317296002543       -0.56889870651899
O           -1.99352355661995       -0.34457671654115       -1.61361865814610
N           -0.83643241858802       -1.02914200893387        0.33126536192256
C           -1.42324386808990       -2.36265835822609        0.35238522694399
H            3.89197740618988        0.88938569523747        1.28407289504546
H            4.42110524997325        0.74612087258617       -0.42659893872103
H            3.35411339556172        2.02180440741614        0.04589127239275
H            3.48621592023441       -1.74114439270136       -0.65734774190062
H           -2.78683945562049        2.90950598198705        0.21133586690910
H           -3.02856457554134        2.29636109613618       -1.43880732634869
H           -3.65940607747020        1.40827502628277       -0.08560754010750
H           -0.68547797047511       -3.14529964409637        0.49814143621052
H           -1.96016285855295       -2.62825470052631       -0.54338073158016
H           -2.17661730879568       -2.38718533079992        1.12209721783243
H            1.12397398707373       -2.77028949152132       -0.48431262588531
