25
 energy: 83.461988033135 xtb: 6.6.1 (8d0f1dd)
C            3.65502797406159        0.86852247243978        0.25792958390530
N            2.54759411062228        0.01509547878035       -0.04636617887189
C            2.66453744004425       -1.27781529237008       -0.54081990468500
N            1.43650485029095       -1.88741111685091       -0.30190672091374
C            0.51915573478042       -1.02790800641813        0.24501948204813
C            1.21824718002960        0.24210826558555        0.38748502897479
C            0.65353735793577        1.38217347623830        0.75037766153181
O            0.30578335560753        2.45779898653197        1.05948776405928
N           -1.92932429426940        1.48141612280478       -0.15282643333937
C           -3.21711899890097        2.03425729256405       -0.43001482999372
C           -1.55874036750859        0.56341509597487       -0.85829271477088
O           -1.44466052388497       -0.07715826510022       -1.82451917472763
N           -0.70571786667746       -1.12584522450654        0.56381175979900
C           -1.43307130102734       -2.35981423685276        0.50713988608900
H            3.82465252828718        0.91582363534958        1.33959947500068
H            4.51360525381377        0.48453230294506       -0.27885537624207
H            3.54075592602441        1.90099871690423       -0.08408848480714
H            3.50539354168855       -1.85264992236193       -0.23911522174552
H           -3.25619994087698        2.83876705935284        0.27656682486670
H           -3.37133257530990        2.38673281591628       -1.45444475994856
H           -3.87969221382441        1.21427286382743       -0.27646049754361
H           -0.80117369464255       -3.22732462786790        0.37319645023244
H           -2.16359496899825       -2.43526906272554       -0.29388290637191
H           -2.01672351277000       -2.41782317864364        1.41584539879478
H            1.21250663131717       -2.80799698037090       -0.61645315276550
