25
 energy: 83.794906088314 xtb: 6.6.1 (8d0f1dd)
C            3.76031263250998        0.82061109118417        0.19849564804666
N            2.65993274089928       -0.05349221528659       -0.10309513894864
C            2.81227904249086       -1.36834448794708       -0.59247195815037
N            1.53298280630323       -1.94478761534833       -0.37767316630519
C            0.65056958530111       -1.12643132302939        0.28812780225785
C            1.37124073085364        0.14859879743578        0.42941546016345
C            0.86145920411314        1.27344383931973        0.89385670814491
O            0.49770458364336        2.32561414807033        1.26659131066825
N           -2.25983626217495        1.75005815206877       -0.25927208483676
C           -3.62124303323583        2.06569946239158       -0.46611892415019
C           -1.62735517631943        1.00518004140450       -0.95284651514763
O           -1.05163760409483        0.45731711242474       -1.78950439490014
N           -0.52784042910554       -1.23848191419818        0.72396084742814
C           -1.40834385309629       -2.34920166522940        0.60854893826599
H            3.76981633753975        1.12597575329628        1.24515507778919
H            4.63108747355108        0.24145765490240       -0.07607398739518
H            3.75337430167906        1.76485052147481       -0.34396019811544
H            3.43992652958302       -1.88666302271696        0.08541337611215
H           -3.77649490286032        2.82053800108452        0.26877255830818
H           -3.82163207806528        2.38797911445631       -1.49033060720023
H           -4.17026293031295        1.16698634514466       -0.25554219077248
H           -0.96011976918030       -3.24838697592378        0.18194760081535
H           -2.27612814464896       -2.17429318348179       -0.03014730059724
H           -1.78807864519811       -2.48237053813596        1.62276708505778
H            1.29413365647034       -2.87565985852244       -0.63322503480769
