25
 energy: 60.008479276359 xtb: 6.6.1 (8d0f1dd)
C            3.96080088457243        0.64807872649325        0.09502123622728
N            2.85701449162249       -0.25560002496547        0.09586820793679
C            2.83359553178530       -1.49827508895931       -0.43123983950262
N            1.60103973787498       -2.04216680689019       -0.23622583000727
C            0.76066407387387       -1.15582345841647        0.43591671378167
C            1.59458082616567        0.03098664116504        0.64333497595928
C            1.24284820692744        1.19409888220160        1.15589676909029
O            0.93929457007576        2.21635606266890        1.66108914411502
N           -2.99137064457781        1.45703620302430       -0.78223783637832
C           -4.24558296421150        2.09706137976780       -0.80454537119443
C           -1.80831678213855        1.46061198333914       -0.77634308333663
O           -0.66481848745378        1.26767222738171       -0.79565331298171
N           -0.43678130645856       -1.28355823704774        0.83531183967996
C           -1.24969740283712       -2.44033012756534        0.62350239828250
H            4.17409133346821        0.97674040867847        1.11526589419614
H            4.84172916620804        0.15328128642241       -0.31200323321426
H            3.73288701621049        1.52915508884966       -0.51133883642398
H            3.65758625269899       -1.96685653584213       -0.91399780592611
H           -4.25736373436439        2.97995543406251       -0.16192902765405
H           -4.49764740906404        2.38900503046897       -1.82706307016028
H           -4.98831274826089        1.38218330060427       -0.44760595241852
H           -0.70151103529900       -3.38980925538752        0.55824504558265
H           -1.84009094562431       -2.31219657584760       -0.28945583253814
H           -1.94618054390217       -2.49335882091440        1.46247303656101
H            1.34375621768187       -2.95521893455017       -0.56525231748163
