25
 energy: -42.037439702728 gnorm: 0.008945371172 xtb: 6.6.1 (8d0f1dd)
C            3.51301412519641        0.95909231396686        0.62466424986305
N            2.26728113731810        0.37698578212030        0.17148372491844
C            2.25541573428601       -0.63052177592628       -0.70539534626178
N            1.20586937194094       -1.41411386509349       -1.10076731475604
C            0.01992210976977       -1.83660180413821       -0.66860802044787
C            1.13563971865771        0.92798364484244        0.71888016461494
C           -0.04424984233473        1.20587806845274        0.06899716612047
O            0.66936513606551        2.30654105946387        0.09916647948228
N           -1.29026260698029        0.90299549249027       -0.15680191364548
C           -2.24827162285994        1.94292927315744       -0.51423860879826
C           -1.80740550685820       -0.34766200536337        0.26643732612567
O           -2.91823401959935       -0.41999368530717        0.73132702472865
N           -1.01992223450661       -1.49651516668657        0.08329501607874
C           -1.70802162183668       -2.68701209516640        0.61989464324348
H            3.70735734534761        0.66088556997684        1.65727758391892
H            4.33921923947921        0.64239056997064       -0.00450385563283
H            3.42520759674228        2.04621259036234        0.59313979874309
H            3.21826359910321       -0.93335981064476       -1.09061706010871
H           -1.73803159985215        2.90391891043293       -0.52790095725771
H           -2.66722476861327        1.72755453509588       -1.49676468208167
H           -3.05285620669281        1.95289877749938        0.22038287695888
H           -1.65035597385170       -2.66797927166623        1.70900515075339
H           -1.22404680678975       -3.58363995274818        0.23874048091822
H           -2.75896824175465       -2.67439069961734        0.32992689172340
H            1.53172745272338       -2.04623791387344       -1.83584920130214
