25
 energy: 23.347173747328 xtb: 6.6.1 (8d0f1dd)
C            3.39079216678352        1.08881581914563        0.10357808398305
N            2.40359955390094        0.06331957543320        0.01129166598688
C            2.66842180830067       -1.30207302583279       -0.01158399262814
N            1.46706794118900       -1.96058009007196       -0.05220095887937
C            0.47652169108865       -1.03868734357908       -0.02265554221751
C            0.99723630672109        0.24895224168857        0.02341467061587
C            0.17173504107206        1.43468622935488        0.03877296324520
O            0.61727101853026        2.57493100903115        0.10428085473565
N           -1.38306782500818        1.21835367973658       -0.02714847661643
C           -2.62813128002974        2.24604978225449       -0.11781934407258
C           -1.79737254036601       -0.08475192358264        0.00275166329711
O           -2.96969741331086       -0.39985558733095        0.02808208043681
N           -0.87178885363458       -1.20409482532791       -0.00676236626580
C           -1.39163742046226       -2.57225425715281       -0.03748603545836
H            3.84928059181068        1.12409665699135        1.09620314311010
H            4.17703887200425        0.90947733110390       -0.63598892437923
H            2.91557396281534        2.04410002568993       -0.08034183090045
H            3.62494463049615       -1.77268222541900       -0.03229754391658
H           -2.20569692968681        3.25338216573175       -0.10816419070708
H           -3.25278718646768        2.11220912752443       -1.01208592872087
H           -3.33084225049610        2.15896092521409        0.71499311220290
H           -1.05122604073218       -3.14862464928107        0.83088944460744
H           -1.06913890734279       -3.10254683856332       -0.94136780717102
H           -2.47856914638711       -2.52403282793066       -0.02632451725967
H            1.39295442463401       -2.96654286240205       -0.11217218158826
