25
 energy: 57.156596733063 xtb: 6.6.1 (8d0f1dd)
C            3.50347237196260        0.99479195086252        0.11905959374954
N            2.50451647595459       -0.03167658398750        0.01022246674034
C            2.75293257284402       -1.34707851997573       -0.03746053538499
N            1.57640316935729       -2.02773952006216       -0.05620812380644
C            0.56498837985991       -1.09700353398422       -0.00896391531448
C            1.14215196557800        0.16306142488754        0.03346057642722
C            0.28119866888188        1.38941076938936        0.06505541979215
O            0.78797596194841        2.49814054334806        0.13778856465177
N           -1.07408391799073        1.14759683489642        0.02343918069184
C           -3.26653700400970        2.55825703581631       -0.15065371182988
C           -1.65959163353908       -0.02762325934010        0.02253867749828
O           -2.82419679622895       -0.34123148853624        0.04893206848555
N           -0.74721141124282       -1.25789933344274       -0.00772107330930
C           -1.32015357440130       -2.57714199072965       -0.02288100327158
H            3.92718309106830        1.02130992118916        1.12425259757722
H            4.30310223945106        0.77980011526346       -0.59057077157396
H            3.08448003120377        1.97294439231389       -0.08074196887006
H            3.70754300687588       -1.81167258958999       -0.11550848212892
H           -2.66347011070409        3.43043558717898       -0.14656782388719
H           -3.70890412131159        2.25647655369929       -1.06698294713423
H           -3.80509181330208        2.29814327552785        0.72464724155777
H           -0.96126276054585       -3.13479652820199        0.84419869598995
H           -1.02034581277014       -3.09357457218093       -0.93901948348835
H           -2.40883760484164       -2.51311285729100        0.01921975748839
H            1.50277254846302       -3.03171326632688       -0.09536914615468
