  72
        -99.36319578
 N         -2.1287551735        3.1400877923        2.3552715206
 C         -1.9520018448        2.3218047586        1.4279436516
 C         -2.9046697913        2.1073938235        0.2839592701
 C         -3.4694175706        0.6976084342        0.3512070327
 C         -4.1882147058        0.1849084129       -0.7309593308
 C         -4.7332821659       -1.0874354131       -0.7000758825
 O         -5.4422108113       -1.6563323691       -1.6990425295
 C         -5.7642099617       -0.8911603141       -2.8361238239
 C         -4.5544109016       -1.8977344154        0.4527975634
 O         -5.1052139256       -3.1280506653        0.3896170675
 C         -5.0350523254       -3.9661764481        1.5191626547
 C         -3.8513709024       -1.3789756675        1.5277910873
 C         -3.3183540681       -0.0963375758        1.4768456524
 C         -2.0602480987        2.2904485735       -1.0056032805
 C         -1.1367895579        1.1066447501       -1.3532051317
 C          0.0205757678        0.9644471495       -0.4418386480
 N          0.4267504462       -0.1702960687        0.1119532871
 C          1.6371749316       -0.2145184077        0.9132957626
 C          2.7200355520       -1.0067211668        0.2408807156
 C          4.0359129129       -0.6941245956        0.1844808464
 C          4.6197073747        0.4909265589        0.7216902525
 C          5.9356608585        0.8003385890        0.5563765106
 C          6.8269160719       -0.0294197658       -0.1738536574
 O          8.1298392758        0.2682034257       -0.4125400722
 C          8.6596192580        1.4866432901        0.0551663650
 C          6.3632155851       -1.2180675106       -0.7033601551
 O          7.2374417360       -1.9611165031       -1.4001834652
 C          6.8491298155       -3.1988536217       -1.9470919874
 C          4.9651845152       -1.6918848294       -0.4680463313
 C         -0.3208845741       -1.3981728023       -0.0178475673
 C         -4.1002681776        3.1058301915        0.2785702556
 C         -4.9925046654        2.9164345139        1.5032632626
 C         -3.6652358242        4.5652670007        0.1788970461
 H         -4.3342246054        0.7977742062       -1.6049532908
 H         -6.3324646845        0.0049121870       -2.5691324536
 H         -6.3821852698       -1.5371503077       -3.4565875797
 H         -4.8683039896       -0.6039595505       -3.3965656917
 H         -5.5155109332       -3.5085259553        2.3889266198
 H         -5.5729553013       -4.8714496927        1.2448475717
 H         -3.9993549196       -4.2215933102        1.7660471111
 H         -3.7198855059       -1.9616636111        2.4249894963
 H         -2.8026116024        0.2838860890        2.3450550769
 H         -2.7362508881        2.4434256260       -1.8464018854
 H         -1.4564406884        3.1928597138       -0.9014193403
 H         -1.7218787596        0.1904576392       -1.4032486991
 H         -0.7403361141        1.3079909251       -2.3567524216
 H         -1.0449377924        1.6964850445        1.3235042965
 H          0.6636162032        1.8228762189       -0.3161899181
 H          1.3846759145       -0.6799842855        1.8768765955
 H          1.9678840112        0.8051710919        1.1063215432
 H          4.5288423081       -2.0401852081       -1.4082761236
 H          2.3941429520       -1.9385420229       -0.1983777116
 H          3.9977555634        1.1824391095        1.2671189415
 H          6.3123943635        1.7167558390        0.9810001680
 H          8.6247530549        1.5522274947        1.1471707482
 H          8.1423768910        2.3464900482       -0.3823729869
 H          9.6986769534        1.4912771971       -0.2690784073
 H          7.7441413043       -3.6026958103       -2.4165070622
 H          6.4997912115       -3.8926570668       -1.1773329781
 H          6.0707100113       -3.0786388891       -2.7070337849
 H          5.0234774913       -2.5743795416        0.1878048905
 H         -0.3251572175       -1.7483082803       -1.0519521154
 H         -1.3542977370       -1.2542148265        0.3085241694
 H          0.1350190755       -2.1627014772        0.6057489420
 H         -4.6964611115        2.8680568079       -0.6101254032
 H         -4.4444649537        3.1669823508        2.4057030093
 H         -5.3466128269        1.8910627017        1.5772787546
 H         -5.8563257444        3.5717626285        1.4291160479
 H         -3.0421797907        4.8309965899        1.0270680165
 H         -3.1239397934        4.7660605409       -0.7418304543
 H         -4.5466390754        5.2010220902        0.1921748624
 H         -1.4014636514        3.2215999509        3.0591295476
