25
 energy: -42.094765789063 gnorm: 0.003344512092 xtb: 6.6.1 (8d0f1dd)
C            5.62879540159593        1.06300486032012        0.12394635164708
N            1.91599852226507        0.27251505068157       -0.02855138034599
C            2.29018875996909       -1.01090455229163       -0.00398695041809
N            1.18124372365090       -1.79307846364254        0.00298282594638
C            0.08238650478040       -0.98092419903255       -0.01753460735553
C            0.54227093081155        0.32977641148353       -0.03844846956543
C           -0.35516312482165        1.45891802543347       -0.04309861614983
O           -0.02971099026599        2.62525117242316       -0.05084572379911
N           -1.69396769239784        1.04076237549266       -0.03376240593423
C           -2.71607435022856        2.07483800744532       -0.02355277554277
C           -2.17494940364364       -0.25415139410616       -0.01920254834578
O           -3.35186843856547       -0.50214241177693       -0.00854166280256
N           -1.22582075542517       -1.29981811368434       -0.01634821831936
C           -1.69484826865731       -2.66989910995850       -0.00590840414899
H            6.02642815740006        1.34071071794841        1.08540864705071
H            6.12957184433001        1.25206816766926       -0.81144584760544
H            2.52588709613055        1.07956401979734       -0.03761254599223
H            3.29929703647360       -1.36783988609759        0.01021877769660
H           -2.21783547156434        3.04216179183042       -0.02244796154818
H           -3.35264327028596        1.97756347119106       -0.90350060836365
H           -3.34124753835196        1.96919951319757        0.86354552601753
H           -1.34354608008985       -3.18963732337448        0.88607834027596
H           -1.36272261947580       -3.19551445820561       -0.90197868728099
H           -2.78437882754324       -2.64172779755484        0.00557919314363
H            1.18314036801374       -2.80245733358073        0.02017936963161
