25
 energy: -42.104594889867 gnorm: 0.003918132490 xtb: 6.6.1 (8d0f1dd)
C            3.28276825372441        1.09642201909528        0.03731582640986
N            2.33054108915085        0.01863263747524        0.01171140230045
C            2.59916396746746       -1.28414286017772        0.03422508980819
N            1.44492822377860       -1.99187722282692        0.00709091615815
C            0.40837402757659       -1.10781217336526       -0.03529470566942
C            0.96084968252314        0.16730122462712       -0.03300089475734
C            0.16168585598606        1.35227242970939       -0.08278774444515
O            0.53994957923301        2.50297174458256       -0.06667043553284
N           -1.23844173810037        1.03623149680494       -0.17494131688312
C           -2.09222359334517        2.06630377392758       -0.26275045693087
C           -1.80574065046219       -0.26923757087666       -0.16662306245488
O           -2.99197176061937       -0.43683085426103       -0.23797022325361
N           -0.91888544888877       -1.34165807536315       -0.07532307179166
C           -1.45159880782953       -2.69139591922989       -0.04856585035265
H            3.80797631091313        1.11573200673621        0.99302633548484
H            4.01261021662738        0.97604488928200       -0.76252951384744
H            2.74882348810683        2.03724905980798       -0.09209480685231
H            3.58016896560722       -1.71445155737292        0.06620278358322
H           -1.67671646235754        3.05762114912055       -0.25961069263447
H           -3.14391253655640        1.86499027371146       -0.32999926789998
H           -3.98013735474989        3.43504002329337        1.61725474392892
H           -1.13254269739606       -3.20469157101616        0.85868737980091
H           -1.12997939741551       -3.24680147289174       -0.92986920946912
H           -2.53786033619903       -2.61989119856666       -0.05316098204491
H            1.38260263732524       -2.99978371062296        0.01684937524236
