  25
        -42.18492740
 C          2.9553739922        1.3076273746       -0.0274744409
 N          2.1016266552        0.2732184652       -0.0200554711
 C          2.4663175434       -1.0368905677       -0.0520579742
 N          1.3486781204       -1.8246022043       -0.0456631987
 C          0.2646107745       -1.0344375563       -0.0106352209
 C          0.6997102217        0.3078682131       -0.0032047250
 C         -0.2410553838        1.3181736747        0.0065707714
 O          2.5768935394        2.5660113325        0.1887307193
 N         -1.5570212263        0.9550015461       -0.0352497213
 C         -2.5958437183        1.9629019579       -0.1119121447
 C         -2.0229502252       -0.3563519009       -0.0145187766
 O         -3.1946580892       -0.6130443704       -0.0261837774
 N         -1.0493891117       -1.3662110065        0.0220620953
 C         -1.4742098200       -2.7463969777        0.1233529208
 H          4.0082079776        1.0891209163        0.0513023874
 H          2.0305400202        2.9851407282       -0.4866272942
 H         -0.0233975395        2.3683047846        0.0728633885
 H          3.4699425885       -1.3966338954       -0.0503118402
 H         -2.1599722221        2.9544432593       -0.0430091277
 H         -3.1351283663        1.8612723002       -1.0546979041
 H         -3.3136517861        1.8157527593        0.6949141475
 H         -1.1175731598       -3.1834717559        1.0569702379
 H         -1.1063196759       -3.3252426126       -0.7235958179
 H         -2.5630634713       -2.7570797183        0.1167795720
 H          1.3702741330       -2.8320680800       -0.0472283289
