25
 energy: 0.000000000000 xtb: 6.6.1 (8d0f1dd)
C            3.23720163006194        1.16630919979326        0.08434469647475
N            2.29877817382611        0.07527477071623        0.03981603040599
C            2.58028210190900       -1.21425402444508        0.03006176031096
N            1.43813958087363       -1.93419271955128        0.00098261760884
C            0.39035688448383       -1.05887472636071       -0.00790371836672
C            0.93510056364412        0.21347819449412        0.01709077491437
C            0.09450143893243        1.40504303904423       -0.00410947031874
O            0.49712751527797        2.54126714362870       -0.00342325688240
N           -1.25076640035757        1.06271879480407       -0.03085478223738
C           -2.21907211982101        2.15522099834493       -0.05001256985998
C           -1.81739487048744       -0.20012725993278       -0.04692818574614
O           -2.99983886758376       -0.37846417018721       -0.07008878229737
N           -0.92618586207120       -1.30210215599479       -0.03682761578324
C           -1.46982264913417       -2.64643102187190       -0.06029820460571
H            3.71247264356769        1.21471455160235        1.06488849150277
H            4.00791497605742        1.03430808813993       -0.67357694370751
H            2.69910007168542        2.09770118228144       -0.09130154882931
H            3.56654120610678       -1.63682992603973        0.04233140067262
H           -1.67107961066214        3.09322851271934       -0.02552706933167
H           -2.82428953597071        2.09428624779827       -0.95318082946668
H           -2.87644029173232        2.07745725625962        0.81450067533302
H           -1.17061996399332       -3.19584890659852        0.83242232437030
H           -1.14560257411436       -3.17511610292205       -0.95688275822323
H           -2.55549792440841       -2.55659984320617       -0.07459039797972
H            1.38130855184625       -2.94313852034425       -0.01389874181052
25
 energy: -2.650217890052 xtb: 6.6.1 (8d0f1dd)
C            3.25047616664960        1.19293063123343        0.09381890649090
N            2.31828470269576        0.10565837622004        0.04149316517589
C            2.61765709235548       -1.21877718640191        0.03202163870130
N            1.44989727667517       -1.93569296221563        0.00015622438603
C            0.40505169030433       -1.06282469180516       -0.01153068808567
C            0.93898707646807        0.22060101905379        0.01612229726279
C            0.11235146657106        1.39457269943177       -0.00352193398446
O            0.50853554961406        2.56038565662342        0.00094043105581
N           -1.24791007239043        1.04883389553642       -0.03606438750638
C           -2.20965910124558        2.14275329198721       -0.06124415532927
C           -1.81244864956398       -0.20112377958117       -0.05075970845061
O           -3.00840127576704       -0.38148940631648       -0.08197084127800
N           -0.93551622538442       -1.30761565330284       -0.03398439498035
C           -1.53379561730711       -2.63524392324006       -0.04425633768777
H            3.74228232869312        1.22947318962924        1.06974422360338
H            4.01162047695698        1.07443954014348       -0.67914757204092
H            2.69985325826417        2.11870448251475       -0.06242223373546
H            3.60088830137830       -1.63413934895259        0.04861472423861
H           -1.65242797591919        3.07633939494538       -0.03351490981719
H           -2.80904628625889        2.08562328567279       -0.96929363628664
H           -2.87178937729762        2.06886863923965        0.80061712364951
H           -1.12118384593974       -3.23603956062958        0.77062111851592
H           -1.28280373525708       -3.14782862644822       -0.94332069797637
H           -2.65662168520633       -2.62970416200635       -0.02273790055344
H            1.39793312884748       -2.93967619915932       -0.01334655922034
25
 energy: 5.991909064656 xtb: 6.6.1 (8d0f1dd)
C            3.26495929268133        1.22657854184357        0.10877203438088
N            2.33902785714341        0.14003093280198        0.04512713094201
C            2.66136916844832       -1.21489413864185        0.03754289117476
N            1.47295344172942       -1.93058229190518        0.00134087474985
C            0.42293380508496       -1.07550076954244       -0.01266738314046
C            0.94164288546358        0.22429847064694        0.01595230014602
C            0.13830083369756        1.37496108346518       -0.00235230217141
O            0.51601464108969        2.56378239157893        0.00941448586699
N           -1.24181702559862        1.03208358365327       -0.04636166417577
C           -2.19329032297339        2.12829448344041       -0.08205312891862
C           -1.79663253577672       -0.20456954197268       -0.05954633258020
O           -3.00044369936163       -0.38502249258126       -0.10668711596925
N           -0.94619473398273       -1.32065753511718       -0.02469376619057
C           -1.62190609897948       -2.62651574889221       -0.01742908755931
H            3.78861324048198        1.24646273293151        1.07279346424740
H            4.01154817502319        1.14145967996188       -0.68801625128888
H            2.70125861336834        2.15077977376989       -0.00990203391807
H            3.64507349085468       -1.61413569570625        0.06087212558323
H           -1.62561039807676        3.05631300704689       -0.04823519751516
H           -2.78260931835789        2.07362007377175       -0.99741578584264
H           -2.86462005416380        2.05692816624882        0.77334782528831
H           -1.04086277439452       -3.30440828052004        0.67084036115702
H           -1.53014319724472       -3.10443730208846       -0.96003437683663
H           -2.78973718485864       -2.71349872930240        0.09816335640003
H            1.44238656663859       -2.93234179271897       -0.01173852768225
25
 energy: 18.750352014313 xtb: 6.6.1 (8d0f1dd)
C            3.27456454458040        1.25613718650228        0.12126948555779
N            2.35640055468481        0.16320688420394        0.04897981832133
C            2.69696340314348       -1.20467241538707        0.04332149980638
N            1.50492059038607       -1.92505677427527        0.00708626445633
C            0.44112033792373       -1.09418616971227       -0.00418810254824
C            0.94767066053111        0.22064095027185        0.01930797795300
C            0.15981414417625        1.36224350852098        0.00031666532648
O            0.52034117115494        2.56092526550538        0.01728641768503
N           -1.23299496849657        1.02048497871931       -0.05714348012487
C           -2.17788117401389        2.11616820919661       -0.10473461633458
C           -1.77752132128158       -0.21332520472429       -0.07028973464917
O           -2.98465335960488       -0.39318333512385       -0.13578107070104
N           -0.94812165634280       -1.34116045277775       -0.00575702279782
C           -1.69320274456535       -2.62956488527681        0.01191261008560
H            3.83154182884893        1.25774280757292        1.06999922917061
H            4.00386118570929        1.21071440800196       -0.69973842815854
H            2.70058947880356        2.18140435515089        0.04597820743955
H            3.68661963769365       -1.58552190784717        0.07193333435838
H           -1.60369923745604        3.03994866822128       -0.06421677272325
H           -2.75589928970816        2.06131901931801       -1.02741994092439
H           -2.85861901549606        2.04500050871153        0.74330189948053
H           -0.98886187281312       -3.37395450410329        0.55545415410359
H           -1.80068984610490       -3.04768548168933       -0.98729073512579
H           -2.89357655536923       -2.77057718956797        0.23546044736406
H            1.50352817155251       -2.92801982723977       -0.00801421087376
25
 energy: 28.941855918380 xtb: 6.6.1 (8d0f1dd)
C            3.27973390052836        1.27676249611439        0.12628189239532
N            2.36899571343273        0.17340820385239        0.05037266974384
C            2.71987682452660       -1.19076566794383        0.04554190257084
N            1.53793727463841       -1.91919278046099        0.01629728115029
C            0.45536071102500       -1.11330118137097        0.01482387076967
C            0.95590569920224        0.21176134864791        0.02629329723343
C            0.17445064239684        1.35674516491491        0.00443960413989
O            0.52243511885026        2.55206026399655        0.02478030690960
N           -1.22292321603875        1.01368215421587       -0.06481852417562
C           -2.16525087648650        2.10706063995343       -0.12136406944337
C           -1.75960622617704       -0.22478057743152       -0.08238441102406
O           -2.96507139938290       -0.40354583534927       -0.16603100188034
N           -0.94541160581572       -1.36347645144266        0.01923672899491
C           -1.74329008650082       -2.63978033352731        0.03411371833501
H            3.86735957585851        1.26143073775683        1.05749678969969
H            3.98936243221710        1.26945238607301       -0.71604700415941
H            2.69929078386854        2.20315361042557        0.09284073646691
H            3.71823733210033       -1.55480379592375        0.07509131021068
H           -1.58864852634054        3.02850346712704       -0.07454277475418
H           -2.73400786866364        2.05168405064867       -1.04937609703640
H           -2.85313276916408        2.03448928456311        0.72049569346836
H           -1.00168688827470       -3.41720312882093        0.44090823496422
H           -2.00013779797550       -2.97726748811161       -0.96731581496647
H           -2.96492489955860       -2.82222315071249        0.32464341847824
H            1.56736081966997       -2.92482481502226       -0.00474386194379
25
 energy: 33.801801940933 xtb: 6.6.1 (8d0f1dd)
C            3.27995856510492        1.28201365593058        0.12564524121166
N            2.37401851275831        0.16907746722717        0.05023149495838
C            2.72305448351539       -1.17670774164719        0.04772190668073
N            1.56109391354350       -1.91382947531900        0.02834427922840
C            0.46160191368963       -1.12475654226481        0.03700464566656
C            0.96373948107240        0.20269334981729        0.03429606673184
C            0.17934878045186        1.35916446015108        0.00629528161221
O            0.52284211807662        2.54207528268472        0.02727474434427
N           -1.21365610505442        1.01109555015676       -0.06718960382771
C           -2.15860474017928        2.10152929693512       -0.13334467214129
C           -1.74830351955559       -0.23626248628390       -0.08537854400704
O           -2.94834507868265       -0.41459009408837       -0.19007717612219
N           -0.93933719136442       -1.37908876120328        0.04753840403930
C           -1.75582733800849       -2.65554060716646        0.04573719799124
H            3.88336147342757        1.25621847919223        1.04219433862630
H            3.97240802051085        1.29585894144683       -0.72596316078747
H            2.69977297461126        2.20639638752514        0.11639194597812
H            3.72864857697231       -1.53188434433352        0.07873262206295
H           -1.58477895580552        3.02392909505112       -0.08427990350936
H           -2.72178610667956        2.04471862854244       -1.06396660365283
H           -2.85090589369651        2.03028540856536        0.70458287804788
H           -1.01885390289927       -3.44001623513701        0.32058443667509
H           -2.12055888795238       -2.87285359753918       -0.93370770412511
H           -2.98957058079577       -2.86951024735347        0.39481832149148
H            1.61289415487539       -2.92098726871759        0.00354745897385
25
 energy: 37.279553993498 xtb: 6.6.1 (8d0f1dd)
C            3.27857070434471        1.27747768096281        0.12274752010307
N            2.37444223820966        0.16110160399008        0.05118923702082
C            2.71614789559509       -1.16752732990356        0.05468658136110
N            1.56999090795577       -1.91164163754783        0.04763812712207
C            0.46392763949921       -1.12493644070318        0.06187305191131
C            0.96832623767645        0.20054000436463        0.04363919789582
C            0.17836663128496        1.36290375738487        0.00500352089310
O            0.52407793080466        2.53964641943097        0.02048747208415
N           -1.20716232215039        1.00829580243902       -0.06605134223712
C           -2.15766698686281        2.09676198244643       -0.14759249314340
C           -1.74283408500170       -0.24455809739016       -0.07302692976296
O           -2.93794034339611       -0.42542092080431       -0.20143998118480
N           -0.92965618079939       -1.38202275275032        0.08776959507906
C           -1.73867556590727       -2.66570847439284        0.05378519464007
H            3.88363193691221        1.24660716251218        1.03259214650413
H            3.95941112217919        1.29118656200382       -0.73071983454597
H            2.69856435242728        2.19698593859418        0.11843435437269
H            3.72326754218540       -1.52336135879452        0.09136969097019
H           -1.59018569064822        3.02349728544396       -0.10259962316806
H           -2.71744826923406        2.03513807727793       -1.07977787788060
H           -2.85373325974278        2.03279952681244        0.68783868355262
H           -0.96833122049443       -3.48842018619907        0.17345634969978
H           -2.23368493018910       -2.72087816446137       -0.93149649443804
H           -2.97742397082253       -2.91188940444014        0.48033309045211
H            1.62823235411032       -2.91754843410393        0.02689465884612
25
 energy: 37.323605901315 xtb: 6.6.1 (8d0f1dd)
C            3.27519521856758        1.26964749167390        0.11623020330596
N            2.37054908447901        0.15059719922299        0.04863046208447
C            2.70362363846631       -1.16208106824654        0.05272165050438
N            1.56861201254609       -1.91341117491252        0.05890598749191
C            0.46142515759379       -1.12038248895396        0.07655272670317
C            0.96940087247848        0.20048823330275        0.05063252062349
C            0.17217857045080        1.36392938027389        0.00571565678951
O            0.52564614484631        2.53709993149347        0.01826932095320
N           -1.20292541000908        1.00468927048923       -0.06210209226203
C           -2.15837630757420        2.09311023549417       -0.14832465323082
C           -1.74259722430701       -0.25017953364584       -0.06716414092180
O           -2.93236220370405       -0.43241366312706       -0.20427877957764
N           -0.91967432627725       -1.37850802156018        0.10943734729127
C           -1.71164227950466       -2.67006153387455        0.04423978911428
H            3.87992833822731        1.23574791167108        1.02447136635690
H            3.94999032357812        1.27878187354353       -0.73978401437016
H            2.69313495657623        2.18722141993120        0.11298069346797
H            3.70991461483112       -1.52476261781959        0.09266029529209
H           -1.59574307745075        3.02383993030450       -0.10629629866922
H           -2.71817776327151        2.02984540898572       -1.08037107387986
H           -2.85482630580108        2.03283528435850        0.68705452163108
H           -0.98471843270331       -3.46623905470959        0.09125134338215
H           -2.22863720676667       -2.64065341193467       -0.86949812987819
H           -2.93849434493948       -2.94233938793284        0.47416988423342
H            1.62079061760403       -2.91777301185548        0.04092930971172
25
 energy: 38.144016526765 xtb: 6.6.1 (8d0f1dd)
C            3.27660735299002        1.27133000684874        0.11428397004318
N            2.37198700967411        0.15380803645978        0.04779417209966
C            2.70804965597803       -1.16510248060840        0.05464940742228
N            1.56737529285625       -1.91658690597413        0.06833749500665
C            0.46411956491517       -1.11902885800845        0.08633949940925
C            0.96881695297885        0.20325245033517        0.05419902492161
C            0.17174567420705        1.36113152759360        0.00599523456549
O            0.52717943064440        2.54007302257407        0.01098791451482
N           -1.20383321866497        1.00215994784948       -0.06065273457454
C           -2.15929203030219        2.09048772175541       -0.15229803006387
C           -1.74100079485424       -0.25087055922088       -0.05846887636779
O           -2.93134216275028       -0.43571035437838       -0.20098490583173
N           -0.91571732895472       -1.37707685297890        0.13084199574220
C           -1.70920121483315       -2.66682145236664        0.04109781000276
H            3.87986677972532        1.23984573344022        1.02532621653167
H            3.95433840104244        1.27600587992401       -0.74188631057640
H            2.69183468612683        2.18851380550148        0.10637171286465
H            3.71229927106309       -1.53054552154968        0.09930844638942
H           -1.59649345060650        3.02162732855003       -0.11361091733684
H           -2.71815230587351        2.02296648656989       -1.08486179249563
H           -2.85613640916315        2.03262281635736        0.68292964744250
H           -0.96135071527832       -3.48001562956212        0.02843490629695
H           -2.27334004857761       -2.58385672456006       -0.86178665706908
H           -2.92949317548051       -2.96833837874365        0.49073965656095
H            1.61334745107367       -2.92084244363585        0.05394701064907
25
 energy: 37.645274877945 xtb: 6.6.1 (8d0f1dd)
C            3.27802544584928        1.27336084153344        0.11469686181148
N            2.37317753731887        0.15891423097816        0.04599017861409
C            2.71518651034309       -1.17209672669212        0.05352243774785
N            1.56283751186076       -1.92069717907972        0.06940766820314
C            0.46684198917908       -1.11704593121997        0.08377407228076
C            0.96750843105518        0.20622728949978        0.05261052863720
C            0.17024510331847        1.35735062123879        0.00459040497290
O            0.52796266905294        2.54328931579685        0.00333214406589
N           -1.20744483868866        1.00038677402550       -0.05959431535557
C           -2.16167962947997        2.08912500100716       -0.15130365301844
C           -1.74095160656318       -0.24991185360879       -0.05189728666394
O           -2.93383236898567       -0.43752562385511       -0.19016843494281
N           -0.91304325110024       -1.37600467312212        0.13904534436709
C           -1.70510481679053       -2.66391556239821        0.03189042684430
H            3.87189267688123        1.25067706832364        1.03381633896028
H            3.96781052355293        1.26851259289574       -0.73410812280753
H            2.69300451552211        2.19101568703564        0.09144081929724
H            3.71609504048066       -1.54063432643106        0.10500112241130
H           -1.59684572636924        3.01925290068605       -0.11518453726917
H           -2.72146995447668        2.01927450881516       -1.08333185045362
H           -2.85728204159554        2.03169187779113        0.68489210721939
H           -0.95398247439439       -3.46522196544248        0.00732689417893
H           -2.29271025442033       -2.56378860841786       -0.85659748404925
H           -2.91172846844477       -2.98802377750328        0.49004559642775
H            1.59770214483073       -2.92518387968423        0.05783663466798
25
 energy: 37.134713796002 xtb: 6.6.1 (8d0f1dd)
C            3.27759491121732        1.27192986760670        0.11497320192990
N            2.37186067203433        0.15937925744500        0.04544675711941
C            2.71634620681005       -1.17598232132396        0.05179517211171
N            1.55822583341983       -1.92181025055168        0.06887488768524
C            0.46595179889444       -1.11544672992256        0.08141428349990
C            0.96672385550229        0.20629093401378        0.05138010863853
C            0.16819811649841        1.35675708967992        0.00220038797230
O            0.52817916732000        2.54299062280119       -0.00264435572060
N           -1.20982218506999        1.00195365850574       -0.05907611240112
C           -2.16311689462281        2.09105792573139       -0.15139931772750
C           -1.74236932095158       -0.24768134451640       -0.04566487331217
O           -2.93650452221380       -0.43672391664594       -0.17744102332928
N           -0.91379719617019       -1.37504315634171        0.14616347539933
C           -1.70242647029893       -2.66316488071689        0.02519151453139
H            3.86335545552484        1.25679313003941        1.04056770113115
H            3.97687406302786        1.25941686283357       -0.72722505434237
H            2.69413547650431        2.19097394581025        0.07926274718440
H            3.71539281180392       -1.54550856598762        0.10880058470878
H           -1.59698962870446        3.02029600768828       -0.11723249039725
H           -2.72374945587677        2.01980306785337       -1.08285078228090
H           -2.85798913089945        2.03445062747143        0.68540617670058
H           -0.94592579210599       -3.46493360220066       -0.01068544755504
H           -2.28968937372143       -2.54713268713510       -0.84681768761616
H           -2.89486923069477       -3.00297572853482        0.48884968454925
H            1.58662550070870       -2.92666121143058        0.05774435766773
25
 energy: 35.974446144562 xtb: 6.6.1 (8d0f1dd)
C            3.27703049904152        1.27070445776154        0.11500342293750
N            2.37121088252052        0.15879892626504        0.04557751409475
C            2.71720692442981       -1.17690281207787        0.04991151307360
N            1.55767679146557       -1.92159841194314        0.06925041004559
C            0.46671720597164       -1.11495300999316        0.08041716965959
C            0.96768718897645        0.20522968067143        0.05116703050308
C            0.16695863350969        1.35680653411539        0.00040717888498
O            0.52752225748754        2.54165798105548       -0.00590554512096
N           -1.21015791882267        1.00185198270708       -0.05896144963538
C           -2.16390959006080        2.09069480059576       -0.15217463702282
C           -1.74174102421517       -0.24864176571284       -0.04113668747599
O           -2.93648102533902       -0.43951222078549       -0.16866450323840
N           -0.91195993729639       -1.37653184609448        0.15253548955133
C           -1.69747406795693       -2.66584596492519        0.02113966626360
H            3.85680706099342        1.26063599983547        1.04519446598730
H            3.98227204855339        1.25256437305409       -0.72269931943301
H            2.69472355153587        2.19071347268784        0.07064639711708
H            3.71550239103744       -1.54573649481985        0.11196176792741
H           -1.59803154870352        3.01999842306624       -0.11894435814379
H           -2.72501615028356        2.01918691128027       -1.08332452066831
H           -2.85882165314929        2.03511386812284        0.68471219650131
H           -0.95034878220139       -3.46094939344768       -0.02266031655048
H           -2.30279555064619       -2.52705062825858       -0.84420175053849
H           -2.87552810037349       -3.01063080588896        0.49036850467863
H            1.58316458146168       -2.92657545509913        0.05741425674912
25
 energy: 35.475492246443 xtb: 6.6.1 (8d0f1dd)
C            3.27634854811252        1.27059870008203        0.11482316371262
N            2.37060832220667        0.15843988853649        0.04621803580338
C            2.71696023722036       -1.17600654858310        0.04849906265690
N            1.55892343101904       -1.92098211637321        0.06944740382490
C            0.46655307615509       -1.11599627950111        0.08008539816268
C            0.96793354515381        0.20402879423474        0.05181313535993
C            0.16759148692058        1.35703519894735        0.00134701655987
O            0.52708323333288        2.54068378735875       -0.00406350962324
N           -1.20927201454870        1.00155264622375       -0.05918966529375
C           -2.16327111726186        2.09013607981369       -0.15264028464742
C           -1.74124035535689       -0.24911841761165       -0.04131812770358
O           -2.93620104994448       -0.43939105875709       -0.16988190311962
N           -0.91250517100581       -1.37775349058817        0.15179731653599
C           -1.70156230493807       -2.66591773059502        0.02053907270524
H            3.85710947047377        1.25995665331922        1.04479685234268
H            3.98095246988856        1.25303939000955       -0.72365895082282
H            2.69452121003659        2.19130051253171        0.07166520972645
H            3.71602079764028       -1.54285024683047        0.11197674207820
H           -1.59787302226356        3.01967517663104       -0.11845099045247
H           -2.72386932259770        2.01935662525633       -1.08417981341075
H           -2.85886994543756        2.03436550070947        0.68373214324030
H           -0.95324383427749       -3.46219220411807       -0.02070561428098
H           -2.30468568191517       -2.52965360955114       -0.84315094895535
H           -2.87251744606150       -3.00524845768946        0.49153895137794
H            1.58672010538476       -2.92603019128352        0.05599420037014
25
 energy: 33.624854877037 xtb: 6.6.1 (8d0f1dd)
C            3.27488291081097        1.26992347148643        0.11448457466821
N            2.36875293585681        0.15767698574895        0.04750120679270
C            2.71561503764061       -1.17483013757606        0.04457260403587
N            1.56014222715389       -1.92021174898980        0.07065777029967
C            0.46517918642559       -1.11795396041476        0.07942983138247
C            0.96750505751953        0.20188794847819        0.05278008833027
C            0.16848925056227        1.35736140646961        0.00289171018595
O            0.52599880980328        2.53928540915362       -0.00091328747437
N           -1.20804610248393        1.00076326006530       -0.06012110471723
C           -2.16205706453158        2.08914332707501       -0.15386275781201
C           -1.74093009558144       -0.24989486537411       -0.04213570307035
O           -2.93611110212548       -0.43827133826143       -0.17184268329351
N           -0.91455706127325       -1.38012663421743        0.15108934330544
C           -1.70883077146705       -2.66678124000170        0.01840677271660
H            3.85755992380526        1.25838209098164        1.04378280831561
H            3.97837206900815        1.25330490202679       -0.72514551442974
H            2.69458163927717        2.19200231407912        0.07354355579392
H            3.71610159926727       -1.53794589207625        0.11457571224152
H           -1.59719350180736        3.01900990770602       -0.11790654154295
H           -2.72132820798533        2.01958648417807       -1.08630323658168
H           -2.85896043819955        2.03298379742755        0.68143381302817
H           -0.95757626896627       -3.46559635866873       -0.02081824009283
H           -2.31054732713725       -2.52694735505263       -0.84336360884750
H           -2.85725512507575       -2.99837245619267        0.50074521535362
H            1.59242708743955       -2.92535071587860        0.05355156755939
25
 energy: 32.251308106030 xtb: 6.6.1 (8d0f1dd)
C            3.27465388369438        1.26983678511248        0.11433611095333
N            2.36839025514427        0.15766033099173        0.04792360959688
C            2.71514051650306       -1.17508487709612        0.04220168174017
N            1.55987194976997       -1.92045234484579        0.07134642771086
C            0.46458572748381       -1.11847869396522        0.07958309168632
C            0.96691683715868        0.20172239686584        0.05289089629540
C            0.16869947757318        1.35714678018939        0.00338198539601
O            0.52560258148987        2.53946801853980       -0.00003905585883
N           -1.20824622896825        1.00036908609320       -0.06039222885946
C           -2.16209508440897        2.08884697348442       -0.15402022683772
C           -1.74118810203528       -0.25002713380105       -0.04270603151105
O           -2.93634380634588       -0.43763789006218       -0.17298726166042
N           -0.91541410698063       -1.38044197285926        0.15023088335971
C           -1.71133638830741       -2.66656177760025        0.01754793739081
H            3.85860176969222        1.25745790847639        1.04269283918469
H            3.97695510375177        1.25426162308946       -0.72623074573324
H            2.69433521243901        2.19188629532265        0.07518244312435
H            3.71570330264241       -1.53752774612768        0.11702667935880
H           -1.59707859023958        3.01863754503273       -0.11777227447581
H           -2.72105256418644        2.01946028370882       -1.08661931962352
H           -2.85914411539400        2.03258457372592        0.68109216865136
H           -0.96067539019572       -3.46677128902078       -0.01845093793112
H           -2.31259650093132       -2.52814684445079       -0.84560820231820
H           -2.84545892808544       -2.99367711780103        0.50381199970630
H            1.59338785667240       -2.92550231083059        0.05261142680164
25
 energy: 30.940934708183 xtb: 6.6.1 (8d0f1dd)
C            3.27481367918142        1.26969087445087        0.11447736966409
N            2.36858835127622        0.15735404655961        0.04791773511963
C            2.71425394915411       -1.17589750674962        0.04013321476549
N            1.55861245951469       -1.92120456577237        0.07178697219632
C            0.46387737937306       -1.11836652148931        0.08021802441636
C            0.96608772341449        0.20233963121990        0.05256910203231
C            0.16841017844800        1.35668718570902        0.00330644790783
O            0.52561241314746        2.54002499015178        0.00002914643854
N           -1.20916153702065        1.00031210843095       -0.06041608365142
C           -2.16263776089703        2.08915676780691       -0.15395041472976
C           -1.74209940157132       -0.24986820110167       -0.04391374153859
O           -2.93686010513771       -0.43722119098757       -0.17503117622249
N           -0.91605468156925       -1.37950082532494        0.14872704840267
C           -1.71152183163851       -2.66576674109488        0.01734161861726
H            3.86042216201061        1.25565607939820        1.04105375404532
H            3.97490750237828        1.25608392420987       -0.72740025382503
H            2.69367713866392        2.19085090866928        0.07813060899985
H            3.71420068651973       -1.53944804042754        0.12051989960844
H           -1.59702339047100        3.01861666752929       -0.11805727077476
H           -2.72160161085143        2.01945436343020       -1.08647242317385
H           -2.85941512641488        2.03303725599538        0.68132116274333
H           -0.96011698537865       -3.46622867914975       -0.01879675535714
H           -2.31309699657790       -2.52878875714328       -0.84871426952783
H           -2.83375113435419       -2.99188733961385        0.50960749431746
H            1.59209160673665       -2.92605783253440        0.05264668567324
25
 energy: 30.670752778895 xtb: 6.6.1 (8d0f1dd)
C            3.27499846095770        1.26977254477267        0.11456988516662
N            2.36904596103617        0.15716715137325        0.04759779802971
C            2.71416470065873       -1.17644135122406        0.03957912840493
N            1.55788303836896       -1.92164200301364        0.07156859172720
C            0.46388897875742       -1.11802656139365        0.08090527434311
C            0.96592561176642        0.20279537475091        0.05236923757176
C            0.16802667814833        1.35641185346948        0.00299341078315
O            0.52586221471705        2.54015773191266       -0.00071740085606
N           -1.20976948514381        1.00060062877015       -0.05998959486829
C           -2.16306715869525        2.08960699759128       -0.15372459664816
C           -1.74255683461481       -0.24962636160595       -0.04403416051317
O           -2.93712894638317       -0.43743121284332       -0.17515063522050
N           -0.91588685114448       -1.37866062544677        0.14851499359850
C           -1.71030603356190       -2.66523110630365        0.01792671952474
H            3.86098124469342        1.25522427226483        1.04057467035628
H            3.97438686498720        1.25695080144069       -0.72764924482396
H            2.69310445213024        2.19025647737903        0.07896556966069
H            3.71345700617008       -1.54124603093244        0.12186233817845
H           -1.59710664683661        3.01885014855943       -0.11839335534934
H           -2.72229617975744        2.01943498167351       -1.08605909969332
H           -2.85955215119209        2.03376552496567        0.68180411648194
H           -0.95927221144702       -3.46514446785315       -0.02034364059989
H           -2.31229757069300       -2.53002434652478       -0.84919758847224
H           -2.83062042765958       -2.99203114268653        0.50982392288549
H            1.59034995267357       -2.92646067692354        0.05323755647963
25
 energy: 30.553118121765 xtb: 6.6.1 (8d0f1dd)
C            3.27495192822942        1.26977638891953        0.11471572345432
N            2.36935166430781        0.15676134752776        0.04712456502873
C            2.71405520994204       -1.17682950888475        0.03873936356792
N            1.55723910072449       -1.92197848009941        0.07091948602497
C            0.46385771395167       -1.11779996372358        0.08173945145799
C            0.96585507173136        0.20291671795914        0.05237628868738
C            0.16751949886991        1.35618825088226        0.00271377974999
O            0.52614073762762        2.53988741078664       -0.00165181818045
N           -1.21024616586207        1.00105593367872       -0.05928803171778
C           -2.16330243593829        2.09018781632503       -0.15362197744410
C           -1.74305798680986       -0.24933170009988       -0.04389246720408
O           -2.93749525277722       -0.43769326207379       -0.17496550600961
N           -0.91582620431868       -1.37792166602241        0.14858676355962
C           -1.70906975779467       -2.66488469757551        0.01908582283699
H            3.86117546068157        1.25480445869456        1.04038046461374
H            3.97391633175059        1.25766032950640       -0.72767045692022
H            2.69243375280319        2.18971509890847        0.07962928708075
H            3.71266159475315       -1.54291331128132        0.12319081149373
H           -1.59705113927941        3.01924500305614       -0.11889202287399
H           -2.72276617841479        2.01950729316909       -1.08580416153921
H           -2.85962370711083        2.03481911445293        0.68209725788645
H           -0.95741252341543       -3.46316690162807       -0.02456318376660
H           -2.31083151826645       -2.53091704141166       -0.84898644884261
H           -2.82879740745940       -2.99320764243352        0.51082126688686
H            1.58853688001036       -2.92685238646067        0.05424963831648
25
 energy: 30.520987735548 xtb: 6.6.1 (8d0f1dd)
C            3.27474343976068        1.26974077370637        0.11458636400089
N            2.36906873645716        0.15682451840762        0.04713476518088
C            2.71420408119828       -1.17663966811807        0.03812074623138
N            1.55749756195581       -1.92182612936413        0.07077291208194
C            0.46385049232323       -1.11801065564867        0.08193595507749
C            0.96588964975958        0.20258155952673        0.05273345301238
C            0.16757631707023        1.35624890346641        0.00292777162909
O            0.52603955455389        2.53967112014063       -0.00157241746733
N           -1.21001024673802        1.00102581079695       -0.05915557084636
C           -2.16309870549257        2.09004544657674       -0.15374080765416
C           -1.74290326612653       -0.24934083085288       -0.04346919637655
O           -2.93745254853510       -0.43756982499983       -0.17439521134524
N           -0.91598396906171       -1.37826819011673        0.14913506707476
C           -1.70983267583806       -2.66508523100463        0.01952602385679
H            3.86070049551342        1.25512362008751        1.04062952943864
H            3.97418690809983        1.25720410075098       -0.72752257378321
H            2.69256720762847        2.18999238275311        0.07899999073149
H            3.71290769742984       -1.54226460616491        0.12320231272223
H           -1.59701530949754        3.01918556668578       -0.11889942362833
H           -2.72241191927078        2.01940771200485       -1.08602810012040
H           -2.85963052454628        2.03473120811479        0.68182431148886
H           -0.95817397688206       -3.46321257070176       -0.02587641961560
H           -2.31089894120971       -2.53104722864253       -0.84865193332489
H           -2.82861642612417       -2.99271681579020        0.51042654958843
H            1.58901103550824       -2.92677236944202        0.05438979819403
