25
 energy: 30.477168230797 xtb: 6.6.1 (8d0f1dd)
C            3.87397118954833        2.88663413773423        0.25892434980922
N            2.26665800579727       -0.60848488363159       -0.06714245837496
C            2.33580618637934       -1.89536265966800       -0.05467141601218
N            1.09938184599817       -2.49587955068919       -0.03258681379831
C            0.19829337233413       -1.47625232662473       -0.04131283818281
C            0.93512450388283       -0.30187414903034       -0.06011350888359
C            0.27158166425816        0.97711418470551       -0.04407742053657
O            0.78208975732272        2.07058979212438       -0.00452176920807
N           -1.12732094908701        0.83797927468498       -0.05339211555350
C           -1.91739706682629        2.06346274252550       -0.04788472843981
C           -1.86572211056337       -0.32413565359188       -0.05631036973462
O           -3.07660798581760       -0.30940042190036       -0.06378000384306
N           -1.15909240804944       -1.52632867740904       -0.05401803447829
C           -1.89426539241472       -2.77317508464713       -0.06709091005405
H            4.22161438120693        3.13158328696636        1.23755149737820
H            4.53219398403135        2.86313021910312       -0.57329397264642
H            2.84448694936815        2.73046653889519        0.06105851947306
H            3.26925923872693       -2.41755433073800       -0.04582148921876
H           -1.22809802555506        2.90245308674864       -0.12669609928667
H           -2.58161571439555        2.07089149332682       -0.91381486328191
H           -2.50997840095124        2.12440096477811        0.86815394912706
H           -1.65782747761068       -3.36805397585997        0.81714242469743
H           -1.66581512011865       -3.34791454077078       -0.96591764280803
H           -2.95362164747726       -2.51798628426632       -0.05788938853881
H            0.93372245390226       -3.48845881515835       -0.01697946643440
