25
 energy: -1.144220094759 xtb: 6.6.1 (8d0f1dd)
C            3.20628732156105        1.31857479920086        0.10455440965187
N            2.38699635730515        0.08686828017159        0.04008751798289
C            2.64167265712100       -1.30372859559282        0.03584760053026
N            1.43286458620877       -1.99714563554344       -0.00708153126275
C            0.42044896004745       -1.11203959603367       -0.01828433026128
C            0.97610083337380        0.16306003576896        0.00457796611767
C            0.15966620084422        1.31006688774532       -0.01897473253462
O            0.54393499562764        2.48024849405625       -0.04526589783955
N           -1.23428670258240        1.00385921755655       -0.02982574168316
C           -2.14677272096465        2.13049425952733       -0.03768225658852
C           -1.80817553385942       -0.22767236716122       -0.04700067331818
O           -3.01187407338666       -0.39721845205058       -0.06593665726560
N           -0.93543770249514       -1.33412751066758       -0.04355493844975
C           -1.52878585650619       -2.65215356423475       -0.06198315624183
H            3.70109223536086        1.47184282602527        1.07233921591100
H            3.99974915246459        1.30089453457877       -0.65760685683012
H            2.55013817413578        2.16793575198526       -0.06822374946134
H            3.58836698784434       -1.78135157261273        0.03944506633524
H           -1.55015110102007        3.03711556757538       -0.03913981752674
H           -2.74485928765693        2.08514966911579       -0.93169307293749
H           -2.75857365475587        2.10783823479383        0.85475388656541
H           -1.25367625609604       -3.21980772293220        0.82952305304128
H           -1.23541370298671       -3.20131495673310       -0.95894718318217
H           -2.61107881956172       -2.51080117508642       -0.07265813673468
H            1.31576414949240       -3.00021824952566       -0.02141703828072
