25
 energy: -4.357735368826 xtb: 6.6.1 (8d0f1dd)
C            3.22029643670985        1.27070027649323        0.09840399967591
N            2.35793376208393        0.09548491718191        0.03558606400699
C            2.62624322614197       -1.27948898441431        0.03176362356511
N            1.42451178896351       -1.97378559167260       -0.00444853038667
C            0.41026260295354       -1.09213071791422       -0.01641060057224
C            0.95551819321541        0.18545526477595        0.00535944933125
C            0.14438267323373        1.33728669585783       -0.01328013488448
O            0.53136519145524        2.50796601614544       -0.02667326262942
N           -1.24662335759182        1.02075102364249       -0.02984541057667
C           -2.17260886782846        2.13708610234881       -0.04251938159674
C           -1.81454691988057       -0.21530391596842       -0.04727704437614
O           -3.01729467444894       -0.38818622959063       -0.06844698290060
N           -0.94003297304408       -1.32006439193780       -0.04133616717711
C           -1.51020988803507       -2.64749214792326       -0.06135268959801
H            3.71544132307711        1.38784237217662        1.07081204693827
H            4.00972817147131        1.21268288860367       -0.66250890153668
H            2.60567978920178        2.15238855602457       -0.07468502728210
H            3.58380414096390       -1.73612104559541        0.04086092316032
H           -1.58997573764333        3.05332024400774       -0.03306882324953
H           -2.76938155832102        2.09225322391248       -0.94308002119313
H           -2.80089888931269        2.09844946073949        0.84057125631836
H           -1.22456312457998       -3.21011972184519        0.83034947105206
H           -1.20413580455255       -3.19111967275054       -0.95792150512694
H           -2.59391833228196       -2.52568843130076       -0.07340099926729
H            1.32749454355387       -2.97636220283708       -0.01563067780384
