25
 energy: 37.889337057919 xtb: 6.6.1 (8d0f1dd)
C            3.41046180784995        1.96248045086430        0.24664566236025
N            2.36585415852606       -0.21904540553796       -0.06593050768717
C            2.54467380020262       -1.50475406751940        0.04565598716862
N            1.35184015979375       -2.19987652356936        0.05398871529602
C            0.37213547543232       -1.26812347186700       -0.03561833174948
C            1.00709169381764       -0.02733024389526       -0.07791554657532
C            0.21926931769858        1.17240832651177       -0.15432201656749
O            0.61195266085838        2.30862546034732       -0.29999368102689
N           -1.16134745762919        0.92352594683133       -0.05608986794437
C           -2.01523223059233        2.10131015713596       -0.00712452039903
C           -1.78741931018126       -0.28921328572455       -0.04574503047964
O           -2.99681704205691       -0.38133432238618       -0.01672763564739
N           -0.97928578288428       -1.42982003879859       -0.06826417853653
C           -1.67933846941529       -2.69274341235238       -0.06793109828857
H            3.78542383063844        2.11359704512082        1.21237684204255
H            4.02328324540348        1.92486968527461       -0.60575163423957
H            2.43855784243577        2.34367524970845        0.05413899552059
H            3.49862210040298       -2.00427484305465       -0.05473623527674
H           -1.32541719060175        2.93679873934459       -0.14659023933868
H           -2.81796534177851        2.01858805052630       -0.72049566760897
H           -2.43446860915433        2.18867009893356        0.98856813566026
H           -1.44412402806733       -3.27806857677775        0.82189043319064
H           -1.45226063430370       -3.26477576072208       -0.96738491464982
H           -2.73764099733957       -2.42426104061737       -0.06028266199286
H            1.25741620015609       -3.20187119595327        0.07470967802313
