25
 energy: 35.914277454435 xtb: 6.6.1 (8d0f1dd)
C            3.50849128390255        2.10835607009953        0.28096115467733
N            2.34185692987768       -0.27725931136629       -0.07714958238639
C            2.50826874569686       -1.55576566966341       -0.02633553949966
N            1.31309092228577       -2.25195599296929        0.03256507797567
C            0.34176211294779       -1.30883719356186       -0.04438999700366
C            0.98861663360567       -0.07699177708456       -0.09308427731557
C            0.21555045409517        1.12981522647888       -0.18480542413245
O            0.64153033034059        2.25136160998770       -0.33457021744473
N           -1.15624671962944        0.90590882472611       -0.06531288661018
C           -1.98827078663934        2.09767792828110       -0.00902535416906
C           -1.80408425612174       -0.29690809520418       -0.04909889064504
O           -3.01382048667595       -0.37084132126121       -0.00334433648324
N           -1.01179914453808       -1.44771468899473       -0.07818238903708
C           -1.72615494996818       -2.70207735686560       -0.07677429860987
H            3.88585117769180        2.26670953502388        1.24976654750092
H            4.12706400163965        2.07464456386816       -0.56225981070436
H            2.50933584051927        2.40351056996810        0.08685200642387
H            3.46043679664762       -2.05325295019181       -0.12400987987887
H           -1.30549105743144        2.92144630726002       -0.21787791398917
H           -2.82179301128935        2.00795935077222       -0.68737888006460
H           -2.34661686418820        2.21951292310747        1.00977134659250
H           -1.49934223825158       -3.29327308415707        0.81373322812547
H           -1.51337184186529       -3.28009399775259       -0.97424941751121
H           -2.78020358406319       -2.41294130599266       -0.06093034849636
H            1.21520287854625       -3.25504092577246        0.07938989124195
