25
 energy: 34.106068357009 xtb: 6.6.1 (8d0f1dd)
C            3.64370945401573        2.32976394966631        0.30730132219740
N            2.30828090641403       -0.37660320627970       -0.04326849701465
C            2.45033807491216       -1.65418598132143       -0.03044215357405
N            1.24751435666560       -2.33217773668321        0.00630683302508
C            0.29400234707688       -1.36563804079476       -0.04807847684431
C            0.96557119259141       -0.14901529084539       -0.08163995840250
C            0.21578865610711        1.07471900970476       -0.16754660202293
O            0.66625115850411        2.19217337193400       -0.26362768378421
N           -1.15977816399162        0.88053228741652       -0.07799811084774
C           -1.96906092630989        2.08466915460009       -0.03581294282851
C           -1.82718420444985       -0.31064543004521       -0.05083858970022
O           -3.03731222030124       -0.35357931339952       -0.01583217701709
N           -1.06078251571626       -1.47473359563797       -0.07620734269005
C           -1.79202510028396       -2.71672959324854       -0.09893310556238
H            4.00598212434470        2.53341895365106        1.27272006927557
H            4.26927940546234        2.31915157961541       -0.52739261369323
H            2.61957530513223        2.50117450011767        0.09773742975130
H            3.40302705379951       -2.12916989376067       -0.05162704027048
H           -1.31102267821581        2.89403260926837       -0.32627510675733
H           -2.80554053623312        1.99009127719704       -0.72360199118305
H           -2.28938400090184        2.24801820277764        0.98682363680395
H           -1.55269248843290       -3.33490845879969        0.77012347801788
H           -1.59913277586307       -3.27669504994395       -1.01381016487546
H           -2.84589139027328       -2.42702516553181       -0.05289505550404
H            1.14231032013502       -3.33599066017337        0.05753129696026
