25
 energy: 32.023688105595 xtb: 6.6.1 (8d0f1dd)
C            3.77359143651164        2.65914764329581        0.30902490547163
N            2.27857408649004       -0.51003761162388       -0.11094707124653
C            2.40141767666043       -1.79930567634423       -0.06607260829579
N            1.17242237723436       -2.43579399868226       -0.00104684382839
C            0.24731742961027       -1.43983542696466       -0.03818634067094
C            0.94448426730120       -0.24174906462430       -0.08538508991907
C            0.24426137180867        1.01445324469607       -0.11549556046387
O            0.74673074445226        2.11212534820367       -0.14724987301743
N           -1.14414268562827        0.86155565125756       -0.06586699629193
C           -1.93901211197806        2.07872962944258       -0.03953593854953
C           -1.84639193377440       -0.31654998652020       -0.04992178737224
O           -3.05825232404750       -0.32841717516268       -0.03038769932861
N           -1.11219187503792       -1.50103014641073       -0.05912240412673
C           -1.85131373955519       -2.74171045878490       -0.09171002582977
H            4.12540137571822        2.85947166410571        1.29542290547891
H            4.40658251021516        2.62610491050718       -0.54302981951475
H            2.74263635244118        2.66564875342443        0.09208285518282
H            3.35186672735894       -2.29608347337283       -0.05599588269789
H           -1.26553815027572        2.90589467477115       -0.23957948992172
H           -2.68500614019273        2.03433306863837       -0.82166440627251
H           -2.39895755661612        2.18902677195307        0.93324888977391
H           -1.60265732593849       -3.36644380577958        0.76745120388074
H           -1.65373491888779       -3.29256611991852       -1.01553850316653
H           -2.90847934927423       -2.46741431545326       -0.04945264151660
H            1.03447219941900       -3.43648667643287        0.02916631418560
