25
 energy: 47.574323529341 xtb: 6.6.1 (8d0f1dd)
C            3.27988070325753        1.38319748100790        0.09488134288341
N            2.44283789573385        0.21033833305688        0.05032085350400
C            2.81414620989236       -1.09206636600836        0.05546029555334
N            1.69926647636813       -1.89598001594964        0.02212026625595
C            0.57146844882736       -1.11686334806435       -0.00369327341721
C            1.06367837261830        0.20701245724889        0.02317924330604
C            0.20792360681742        1.33915072070586       -0.00511801817167
O            0.55974944323032        2.51639759748780        0.00394380513556
N           -1.12159619668454        0.95450318987708       -0.03644846749664
C           -2.11552054958711        2.02785984479865       -0.05145894434039
C           -1.61306133201763       -0.35013093598274       -0.04788727860204
O           -2.82839003553987       -0.41285129148605       -0.06702119103389
N           -0.74607176392252       -1.43445633206581       -0.04054286913511
C           -2.26895882924566       -2.91312310596459       -0.08271949947800
H            3.82172108146769        1.43541723283845        1.04138216266191
H            4.00900277397589        1.37967035784510       -0.71615137589035
H            2.66713344390074        2.28206212118054        0.00219191660511
H            3.81978333038222       -1.45396187001814        0.05841692744945
H           -1.54906916003465        2.95651935635186       -0.03070637849249
H           -2.72345672430934        1.96821930463878       -0.95251661505767
H           -2.76202557147535        1.95414332341603        0.82055390127705
H           -2.05897135979102       -3.40346872722181        0.82820665428843
H           -2.02785010267397       -3.38150424721867       -0.99668588063915
H           -3.04122026437054       -2.19150542863230       -0.08640956435567
H            1.73876679993827       -2.90439614466582        0.01924704784263
