25
 energy: 45.525719340653 xtb: 6.6.1 (8d0f1dd)
C            3.34856083869827        1.44053324121167        0.08866040823683
N            2.50458291498225        0.27106726478424        0.08459742407958
C            2.88519325151756       -1.01376814787761        0.06692538791105
N            1.79834352758694       -1.83620793038859        0.01830145230768
C            0.66329087556234       -1.05383779458643        0.00110542858371
C            1.13803052978894        0.27248429377387        0.04165539017680
C            0.23557936082719        1.39013407879581        0.01748839548095
O            0.58666339714532        2.56619979482890        0.02594972126267
N           -1.06386012302993        0.95724689972476       -0.03014308337624
C           -2.09459299427388        1.98806660632208       -0.05175912396188
C           -1.51889637494819       -0.38902769890458       -0.04361175708742
O           -2.72746333886117       -0.47628717369396       -0.06344121792544
N           -0.61146946551544       -1.40555287735345       -0.03701434796863
C           -2.63815359808290       -3.10519194629286       -0.09453539532233
H            3.87897086408903        1.51366368537933        1.03734819437442
H            4.07399771325408        1.39553750791081       -0.72063079665211
H            2.74789736765971        2.34306469375217       -0.04730500415469
H            3.89449568067882       -1.36227900054480        0.06301820343841
H           -1.55404251249178        2.93063676035134       -0.03474511120144
H           -2.70732308501245        1.90485653126066       -0.95043319074227
H           -2.74655599278561        1.88847211761155        0.81685004565714
H           -2.35548092159887       -3.54425442434421        0.81692691630628
H           -2.33049871000233       -3.50875447352084       -1.01454426420986
H           -3.28783439452746       -2.27319029711762       -0.08635144347277
H            1.85102636479476       -2.85077880242627        0.01606438019690
