  25
        -42.10974404
 C          2.8392418091        1.2964876270        0.0312259837
 N          2.0014045647        0.1293947493       -0.0032313735
 C          2.3984821274       -1.1423073319        0.0221033773
 N          1.3142874750       -1.9372245638        0.0036614453
 C          0.1978293893       -1.1246919321       -0.0434966395
 C          0.6377004224        0.1745145521       -0.0545275201
 C         -0.1304182566        1.4989947431       -0.0286149152
 O         -0.3109968349        2.0132672037        1.0729409995
 N         -0.4523414201        1.8853229431       -1.2290719870
 C         -1.1222683391        3.1113224461       -1.4858462590
 C         -1.9204244000       -1.2067338061        0.9032926011
 O         -2.5645200588       -0.7630704422        1.7552194064
 N         -1.1185783582       -1.6370725939        0.0101816124
 C         -1.5303170578       -2.6280464710       -0.9979636279
 H          2.5097002933        1.9539599583        0.8382144801
 H          3.8742335519        1.0061411657        0.1934615962
 H          2.7533124463        1.8442129609       -0.9084910234
 H          3.4143097595       -1.4825068934        0.0541541403
 H         -0.4903708360        3.9680175831       -1.2305348565
 H         -1.3571097547        3.1452815212       -2.5497180579
 H         -2.0473754950        3.1930609191       -0.9049773736
 H         -1.1820838857       -3.6246280465       -0.7217269095
 H         -1.1136439993       -2.3425540066       -1.9630027185
 H         -2.6155167503       -2.6431007505       -1.0695814536
 H          1.3296815305       -2.9464291018        0.0091452753
