  25
        -42.10863069
 C          3.1608089076        1.0658154094        0.0054023247
 N          2.2894974893        0.0644528943        0.0050525922
 C          2.5532058796       -1.2618619013        0.0116078583
 N          1.3868183015       -1.9652475798        0.0100952829
 C          0.3569518936       -1.0781523615        0.0006916890
 C          0.9022607137        0.1944721190       -0.0006082486
 C          0.0787629133        1.3811587832       -0.0052201704
 O          0.4789683919        2.5211681899       -0.0136068692
 N         -1.2787205587        1.0518437422        0.0030372175
 C         -2.2334519256        2.1502078960        0.0243827590
 C         -1.8478292078       -0.2085003506        0.0015517695
 O         -3.0347426172       -0.3782645948        0.0054308604
 N         -0.9654207520       -1.3115543995       -0.0038502465
 C         -1.5148919663       -2.6531087230       -0.0033076557
 H          2.7828856067        2.0729944761       -0.0005680914
 H          4.2116927902        0.8486780372       -0.0013245725
 H          3.8972829040        4.3312345634       -0.5876213799
 H          3.5295584783       -1.6983363568        0.0239882737
 H         -1.6749428223        3.0831029367        0.0380037951
 H         -2.8727074598        2.1045732428       -0.8575375256
 H         -2.8655944672        2.0726426043        0.9082386647
 H         -1.1845357441       -3.2003819480        0.8801142766
 H         -1.2219099386       -3.1867327348       -0.9083191061
 H         -2.6004749308       -2.5623890488        0.0192045271
 H          1.3177777995       -2.9720736106        0.0052899573
