25
 energy: 38.363488220753 xtb: 6.6.1 (8d0f1dd)
C            3.59227409658535        1.77650415723585        0.08487903870146
N            2.82931952779292        0.54035423516993        0.05123944691150
C            3.29123158976135       -0.70521718183424        0.07655772036727
N            2.26909689169381       -1.58567492734870        0.04519139231191
C            1.08533710866893       -0.87455308920190        0.00435059632356
C            1.46029988467970        0.47341950743254        0.00857124050743
C            0.43787915312589        1.48639515428681       -0.01161248245265
O            0.64282014380502        2.69344460008552       -0.00449058817946
N           -0.81584357066893        0.92123642703018       -0.03838989148671
C           -1.95001235050604        1.82279635652042       -0.05730521660433
C           -1.14370125000241       -0.47343064046800       -0.05451250615600
O           -2.31301658872537       -0.77301993943358       -0.08498763974355
N           -0.12137777431413       -1.36244160355781       -0.02904429520880
C           -4.20442203294997       -3.79957876758433       -0.12344016452199
H            4.24666298428866        1.81915537564721        0.95654234696654
H            4.22120235743498        1.88811485922419       -0.79983527621622
H            2.90003764655670        2.61884413468682        0.10415995939180
H            4.32686451644426       -0.98206436761697        0.10682742567903
H           -1.54738780804515        2.83201593376423       -0.03077281268787
H           -2.54718437348604        1.66179412098215       -0.95701701814804
H           -2.58010681293529        1.64449324123253        0.81176901857165
H           -4.44736773285466       -4.26120640639169        0.79642593960468
H           -4.38522203435518       -4.24876949719155       -1.05969045792582
H           -3.73161321528701       -2.85761709518200       -0.11197290148852
H            2.31609319461528       -2.59233427586088        0.05681585269541
