25
 energy: 37.648517487348 xtb: 6.6.1 (8d0f1dd)
C            3.61774529795912        1.78736083213823        0.08776894181101
N            2.84595703022259        0.57181238268121        0.06164774919442
C            3.31941432091730       -0.66609828022182        0.07213916251661
N            2.30210843629894       -1.55075491358402        0.03904164253886
C            1.11593332528220       -0.84624246116691        0.00972470152856
C            1.47973666061700        0.50726879144020        0.02438272891702
C            0.45114732756508        1.52113530326386        0.00737339988175
O            0.65360019777551        2.72730765557691        0.01947579587164
N           -0.80594106385987        0.96012808254853       -0.02882135213100
C           -1.94988825790242        1.85389183949302       -0.04682167239389
C           -1.11517627310887       -0.43633499583176       -0.04875428597054
O           -2.27649059272142       -0.77041191289473       -0.08284435785895
N           -0.09284807512855       -1.32801000351659       -0.02482870157465
C           -4.26989434330468       -3.84255108327253       -0.13400786826650
H            4.22577649365544        1.82589638300020        0.99185942339670
H            4.27230903413605        1.84203639627551       -0.78273328778034
H            2.92751393110799        2.63157875496361        0.07626237139298
H            4.35739226003430       -0.92976322311503        0.10482419811159
H           -1.58125799866855        2.87706457303745       -0.01370233184434
H           -2.53682385276304        1.69086038812555       -0.95140416269429
H           -2.58912551882228        1.65171177703249        0.81289032323145
H           -4.56478497488835       -4.31028811054650        0.78344681570842
H           -4.52609396635719       -4.30208381847223       -1.06623955515695
H           -3.72520437938228       -2.92050027367874       -0.12118449784504
H            2.37710928631224       -2.55598529452022        0.03753873161435
