25
 energy: 50.969390539167 xtb: 6.6.1 (8d0f1dd)
C            3.46874050188435        1.79793322729801        0.09387902323919
N            2.77622525960383        0.45203787814419        0.01035880483037
C            3.20592921939892       -0.82076589449018        0.07398167012450
N            2.17057572675411       -1.69591088817057        0.05469633081431
C            0.97972246719351       -0.98579754430213       -0.01285588144030
C            1.39889839531278        0.35479867484666       -0.04289538972399
C            0.40322552761683        1.37985653204278       -0.06713565689795
O            0.62437189934100        2.58473840205125       -0.07358658476542
N           -0.85169296981893        0.82804454424285       -0.06766046641592
C           -1.92589304101596        1.81133415967014       -0.05454220006312
C           -1.23106613331596       -0.55384852663616       -0.07047792604572
O           -2.42854619835054       -0.71158142406708       -0.08999574396662
N           -0.22519089902381       -1.50363502151718       -0.03925283746566
C           -3.70324549726344       -3.46930161292988       -0.09616082425772
H            4.29679733564571        1.78467213449747        0.80484122416509
H            3.93105738728979        2.20975068668803       -0.82510309668542
H            2.74214162383169        2.56499675396909        0.38861909653638
H            4.22673781395592       -1.17372427204097        0.11540355813026
H           -1.42109235020020        2.75993130607672       -0.05203110840936
H           -2.56087581082991        1.74001767341189       -0.93457654625961
H           -2.53039234280143        1.72697081430365        0.84476676320146
H           -3.89918580446400       -3.92364999183975        0.82606100931097
H           -3.81354444595463       -3.96727180526590       -1.00729043368224
H           -3.68202733671404       -2.41986602277982       -0.12127338985666
H            2.17139182850070       -2.70679672290895        0.10904919720089
