25
 energy: -2.129289279564 xtb: 6.6.1 (8d0f1dd)
C            3.26174962091375        1.24556809671845        0.10126084358811
N            2.35630592495653        0.12172768195923        0.02435883546660
C            2.66445180703722       -1.23813980863759        0.03531652779847
N            1.48247938096710       -1.93921059287694        0.01262189991791
C            0.43695881496305       -1.09147129255656       -0.01490626435685
C            0.95578661596786        0.21360458596454       -0.00519872939198
C            0.13029435994533        1.35551146139581       -0.01922850542742
O            0.45995608960639        2.54769919472125       -0.02148195105362
N           -1.25856066493341        0.99037801651353       -0.03729458873204
C           -2.20504102546295        2.09398275693825       -0.04963512083044
C           -1.79588154303109       -0.25600070043856       -0.05481688563176
O           -3.00089213301317       -0.43871100101529       -0.07432513028486
N           -0.91908324942138       -1.37323538442173       -0.04605267615176
C           -1.64501408244155       -2.64083607893834       -0.06207993762233
H            3.78563248019374        1.28000284269414        1.06345380187094
H            4.01795382097731        1.23170655305367       -0.69496379319696
H            2.67638296878399        2.16831090442063        0.01342431662173
H            3.63098277620141       -1.69494824443177        0.05149028620992
H           -1.62107956769520        3.01523231369069       -0.02571742525557
H           -2.81115236786414        2.04659260739577       -0.95369544837815
H           -2.85535524043420        2.02699453962485        0.82166009800798
H           -1.46802375798293       -3.24109497736469        0.83204331931853
H           -1.43831608506348       -3.22975956836506       -0.95744093054845
H           -2.69322159723378       -2.37876515222323       -0.07708950546490
H            1.40486223487893       -2.94102011653367        0.02258637071463
