25
 energy: 54.346857206693 xtb: 6.6.1 (8d0f1dd)
C            3.42815761247318        1.77764786841473        0.10192639446584
N            2.74749372296104        0.42405036600686        0.00290804350336
C            3.17508797832274       -0.85178695997037        0.07230528714939
N            2.13625413535897       -1.72713539978976        0.05610876744716
C            0.94654120798331       -1.01673350581789       -0.01703661974523
C            1.37345481823564        0.32264330243964       -0.05395020467327
C            0.38960092497073        1.35565343272046       -0.08157030010263
O            0.62513593781679        2.55809300656989       -0.09243897577831
N           -0.87188915062516        0.81922220203907       -0.07891786767171
C           -1.92808180648820        1.82601804840009       -0.05290736674446
C           -1.26117571631185       -0.55665866518415       -0.07446437821229
O           -2.46214440368494       -0.68559140365799       -0.08898659981289
N           -0.26290621553368       -1.52810635532768       -0.04216785455183
C           -3.60222378361861       -3.38283664627390       -0.09246342933716
H            4.27658530485962        1.73553197528535        0.78121788068600
H            3.84947053462388        2.25533634395643       -0.81020662824991
H            2.71630275557985        2.53529271236069        0.45821334661136
H            4.19444074525378       -1.21560658110047        0.11774362454094
H           -1.38739948803711        2.75607816273707       -0.05234959113560
H           -2.56674775515175        1.76946784293400       -0.93035724171805
H           -2.53022097931246        1.75494252432122        0.85018085240787
H           -3.73844024290165       -3.85401679173157        0.83127979279302
H           -3.65295164043615       -3.89996195919002       -0.99781704682164
H           -3.70125160429432       -2.33647280219913       -0.12250045772066
H            2.14599671777701       -2.74080239330442        0.12205428464831
