25
 energy: -42.099456411668 gnorm: 0.008902191178 xtb: 6.6.1 (8d0f1dd)
C            2.88076742390308        1.13835559116731        0.08016707249724
N            1.94248402811123        0.02946687582217       -0.00029697628847
C            2.44988153721168       -1.18822513343703       -0.03619849848021
N            1.79338795522683       -2.38580528514106       -0.07081495427391
C            0.50798003514795       -2.77656385142539       -0.02443247497445
C            0.57773365641798        0.31097394852028       -0.00555364531348
C           -0.01023943977488        1.65383717871173       -0.03093398483812
O            0.49144970452043        2.75605381289482       -0.06224904050561
N           -1.36155702259554        1.42780969255815       -0.01772908532883
C           -2.41133328915238        2.40129375067627       -0.04143819061180
C           -0.48521271916534       -0.57378857199068        0.00691966388973
O           -1.66062459025145        0.08782314356619        0.00264848553823
N           -0.53372156394751       -1.95523787521393        0.02250990875980
C           -1.84356503141809       -2.60064054824000        0.04434989738723
H            3.36985281475650        1.14428502471165        1.05513757294573
H            3.63805768854456        1.04755007690158       -0.69686831463831
H            2.35173371075134        2.08175433654258       -0.04786448837268
H            3.52885823789359       -1.25058999958901       -0.03268895059550
H           -1.91785462229169        3.37127996010613       -0.08994932090628
H           -3.04782323726105        2.25901569065265       -0.91657126252920
H           -3.01938783744002        2.33647778087146        0.86331440312023
H           -1.83892545043363       -3.38200532398624        0.80269564115653
H           -2.04470365567788       -3.06042835776588       -0.92506002256540
H           -2.62148368864021       -1.87456715918551        0.26750351655083
H            2.42467686966439       -3.17988621612796       -0.11542533372310
