  72
        -99.35379108
 N         -1.3919750902        2.9890040552        1.8278464404
 C         -1.5183235416        2.1163418225        0.9408923307
 C         -2.7490926193        1.9399106338        0.0938308344
 C         -3.3415399826        0.5611091904        0.3346446942
 C         -4.3402914366        0.0781440681       -0.5131438489
 C         -4.9187597164       -1.1645582593       -0.3175862128
 O         -5.8894239348       -1.7016713000       -1.0862269902
 C         -6.4510719561       -0.9324187012       -2.1232992479
 C         -4.4846630059       -1.9760673543        0.7651333786
 O         -5.0911070716       -3.1760537181        0.8700403421
 C         -4.7642222463       -4.0161274231        1.9519351676
 C         -3.5028994653       -1.4861146999        1.6112487565
 C         -2.9420595193       -0.2324525442        1.3993331944
 C         -2.2794567438        2.0724567907       -1.3803647003
 C         -1.5159409862        0.8575296279       -1.9437196117
 C         -0.1238197929        0.7602139148       -1.4338466149
 N          0.4555115322       -0.3261087575       -0.9254420930
 C          1.7348286331       -0.3818894597       -0.5488990697
 C          2.6744659937        0.7641342777       -0.7130711654
 C          4.0892601271        0.4285034424       -0.3427220057
 C          4.8294758045        1.4240764644        0.4814727689
 C          6.2247663796        1.0231360243        0.8112869673
 C          6.7858096020       -0.1322795348        0.3724713019
 O          8.0381105433       -0.5598674398        0.6332787478
 C          8.8855227818        0.2596458033        1.4067260736
 C          6.0192890174       -1.0359087709       -0.4495893986
 O          6.6686221171       -2.1375932864       -0.8352392180
 C          6.0195143707       -3.0996919158       -1.6346340149
 C          4.6909642399       -0.7180312583       -0.7738923396
 C         -0.3464225167       -1.5253135783       -0.7398025160
 C         -3.8562526342        2.9951198048        0.3897516968
 C         -4.3816709554        2.8681903140        1.8178985485
 C         -3.4064371195        4.4306735474        0.1322380105
 H         -4.6770694001        0.6902978150       -1.3330479422
 H         -6.8909588005       -0.0058561041       -1.7421734378
 H         -7.2350329570       -1.5520447462       -2.5542030753
 H         -5.7123968305       -0.6970229957       -2.8964874984
 H         -4.9829953283       -3.5379388335        2.9113085803
 H         -5.3918489791       -4.8976448168        1.8368985157
 H         -3.7114254916       -4.3152982649        1.9242715041
 H         -3.1702535160       -2.0693208685        2.4545212804
 H         -2.2029836518        0.1276864757        2.0985701922
 H         -3.1559637554        2.2385796492       -2.0061931103
 H         -1.6451035338        2.9555618567       -1.4653141773
 H         -2.0887695113       -0.0479590409       -1.7576113925
 H         -1.4685710903        1.0014604845       -3.0309172411
 H         -0.7149760556        1.4164640105        0.6586533351
 H          0.4947352313        1.6304847633       -1.5698326303
 H          2.0825894374       -1.2833754969       -0.0822674072
 H          4.2811297876        1.6344218569        1.4034731281
 H          2.3414701104        1.6216850140       -0.1132082809
 H          2.6554894051        1.0974203231       -1.7623051206
 H          4.8551753843        2.3856241836       -0.0589831010
 H          6.7779452381        1.7118868333        1.4273838034
 H          8.4930004490        0.3961517283        2.4188768463
 H          9.0334081950        1.2362704323        0.9364732762
 H          9.8365273397       -0.2665181918        1.4558024714
 H          6.7522504428       -3.8879365600       -1.7961898584
 H          5.1454921919       -3.5179840133       -1.1262682229
 H          5.7189284105       -2.6812893956       -2.5997009271
 H          4.1284620770       -1.4021880764       -1.3911659638
 H         -0.6866580824       -1.9023168208       -1.7038775610
 H         -1.2148067082       -1.3083241953       -0.1149770923
 H          0.2485365632       -2.2957224088       -0.2563177792
 H         -4.6847706138        2.7723812880       -0.2927175685
 H         -3.5950928652        3.1073710061        2.5264949898
 H         -4.7432091793        1.8619828560        2.0162334552
 H         -5.2042295645        3.5627130188        1.9669993132
 H         -2.5569610193        4.6766398818        0.7616254023
 H         -3.1414682093        4.5925796205       -0.9091199526
 H         -4.2199889913        5.1082511576        0.3780808083
 H         -0.5042455386        3.0350544352        2.3189304944
