72
 energy: -99.347818316752 gnorm: 0.007474710013 xtb: 6.6.1 (8d0f1dd)
N           -1.64609117699264        2.87233730390119        2.12190088400424
C           -1.76968279388944        2.05360190941413        1.18499135590010
C           -3.00456999506309        1.92326227315534        0.33558988487175
C           -3.47954542657338        0.47977302676812        0.36196180522958
C           -4.41991290730969        0.03068837625162       -0.56723253445931
C           -4.90627582471380       -1.26588294923082       -0.53619342396189
O           -5.81729104120137       -1.77831401495138       -1.39206596497596
C           -6.42081360473793       -0.93320837693583       -2.34236740672549
C           -4.43995685307850       -2.16516520066232        0.45928480322368
O           -4.96531953219860       -3.40777711815562        0.41426190328273
C           -4.62709356288122       -4.32783502278743        1.42522902599982
C           -3.51328948554932       -1.71101211107746        1.38378579769890
C           -3.04465713726183       -0.40542364145096        1.33661519243052
C           -2.57560438710352        2.34229753688604       -1.09711617376027
C           -1.70788268020017        1.31757374008192       -1.84037330388097
C           -0.29675928113681        1.29644184541433       -1.37559642719405
N            0.51431570964809        0.24048969129858       -1.46003261244193
C            1.78528864586076        0.27720956997297       -1.05249885314621
C            2.76862222954335       -0.83568369211852       -1.20045644563537
C            4.15607281249832       -0.43564126588040       -0.77620059513998
C            4.74654783673765        0.71859493111283       -1.17780761059158
C            6.04640736678301        1.07881934673974       -0.78276702624734
C            6.78879894804453        0.26318135996979        0.07243691488852
O            8.02774591724869        0.54587308235130        0.53793190371494
C            8.65744105986052        1.73946645937897        0.12946854855747
C            6.24300886329760       -0.94407698477354        0.52229095043153
O            6.99450932968064       -1.66946636478187        1.36107420980683
C            6.53018192812041       -2.90742485898316        1.84348988548183
C            4.89622245082293       -1.41408830901572        0.08151732140724
C           -0.04121896829110       -0.99486475238689       -1.98690302884097
C           -4.18962976517418        2.81752303193676        0.80728017706465
C           -4.64228402166028        2.44817920764550        2.21800439676074
C           -3.88822796135852        4.31238096009743        0.74171811651276
H           -4.78720807362699        0.71107982830845       -1.31769355761660
H           -6.93556892442684       -0.09457637156541       -1.86391477654945
H           -7.14894693580777       -1.55270116291531       -2.86231341302381
H           -5.69146306080586       -0.55184565898776       -3.06465237931314
H           -4.90325145248712       -3.95423308965441        2.41584716776834
H           -5.19993772291719       -5.22676492046359        1.20615916896202
H           -3.55880560482787       -4.56722161582930        1.41043928597708
H           -3.15689048809261       -2.36419733595363        2.16368679263447
H           -2.35049544381449       -0.07957593797006        2.09559767189581
H           -3.47659122184077        2.51669250627893       -1.68528161141473
H           -2.03736249626393        3.28843082609887       -1.03565976337856
H           -2.17194831223713        0.33446930097438       -1.75378355329548
H           -1.72629936137275        1.59135362005757       -2.90527566349732
H           -0.96491681317446        1.37505307677159        0.85414216277911
H            0.15333403454387        2.22660492706132       -1.06817113529338
H            4.29128380405777       -1.68621914030815        0.95132200916487
H            2.12799278187840        1.20742177486277       -0.63341535719971
H            2.81266348934833       -1.15801130027359       -2.25181186325917
H            2.46128639414042       -1.71054219263645       -0.61306972223959
H            4.21197008356291        1.39876571892430       -1.82419934548365
H            6.45853171657421        2.00504857756156       -1.14357732005671
H            8.09376481557871        2.62116588841798        0.44910808007793
H            8.80067356708628        1.76748849415777       -0.95476953919705
H            9.62864099635042        1.73624477485385        0.62056026376649
H            7.32436125603814       -3.28957527537658        2.48189939840012
H            5.61729712623724       -2.79384330875800        2.43654198020330
H            6.34689556873574       -3.61599766113579        1.03049252824809
H            5.02453645850481       -2.35290812732390       -0.48974804838863
H           -0.45705871422781       -0.82032532075079       -2.97858528145033
H           -0.83538689484646       -1.35536113372729       -1.33133209793882
H            0.72195436171112       -1.76123965555078       -2.05863052993002
H           -5.02086719822384        2.60765220595726        0.12334063619620
H           -3.85587810493599        2.67213521769517        2.93199347183904
H           -4.89490241340117        1.39277825996133        2.28736880475884
H           -5.52302463573309        3.02774000974518        2.48191528121293
H           -3.02805016134357        4.54767027162784        1.36028108001100
H           -3.70284045848721        4.64597684973216       -0.27556468093648
H           -4.74429993223096        4.86434148360992        1.12135153938839
H           -0.75573312398623        2.89933612984801        2.60944548851838
