  72
        -99.44121631
 N         -1.3939685983        2.4961352902        1.8404254711
 C         -1.4096266642        1.1948380871        1.1023835908
 C         -2.6099263928        1.2604684110        0.1260653651
 C         -3.5941941083        0.1078047263        0.2200599848
 C         -4.6443767402        0.0927535807       -0.7085546104
 C         -5.5854306105       -0.9192851789       -0.7260737907
 O         -6.6215257733       -1.0077957340       -1.5917650010
 C         -6.7594253229       -0.0315425094       -2.5945164545
 C         -5.4961840284       -1.9708275355        0.2220250565
 O         -6.4455564707       -2.9260253366        0.1277034658
 C         -6.4020448536       -4.0125389683        1.0225085418
 C         -4.4713987609       -1.9391337741        1.1503114695
 C         -3.5334791196       -0.9114988628        1.1509253628
 C         -1.9384527924        1.2702310788       -1.2697506611
 C         -0.6500883083        0.4821139548       -1.0801049230
 C         -0.1187726978        0.9989970714        0.2689650620
 N          0.8369405291        0.2108131641        1.0135031332
 C          2.2332997361        0.5534441167        0.7961921117
 C          2.7623426676        0.4061681740       -0.6446814786
 C          4.2642753298        0.3727927283       -0.6320652460
 C          5.0126124172        1.5263870268       -0.7654881776
 C          6.3990773142        1.4842311954       -0.6962466225
 C          7.0593547958        0.2849544787       -0.4887356480
 O          8.4017430576        0.1291591359       -0.3954699999
 C          9.2232192517        1.2669372394       -0.4950408374
 C          6.3006164323       -0.9051791429       -0.3587351890
 O          7.0233646827       -2.0365717884       -0.1688688379
 C          6.3451181810       -3.2634303833       -0.0658004089
 C          4.9207862442       -0.8403350916       -0.4276631995
 C          0.6046902403       -1.2230059532        1.0260076204
 C         -3.2829501888        2.6253415106        0.4493949808
 C         -4.3915294269        2.5234306207        1.4948072011
 C         -2.1125759626        3.4590355426        0.9745107894
 H         -4.7201577544        0.8970630077       -1.4221334946
 H         -6.9307362644        0.9633157793       -2.1697261119
 H         -7.6322274450       -0.3284572465       -3.1724480446
 H         -5.8843715790       -0.0030677032       -3.2522032412
 H         -6.5277219550       -3.6845826357        2.0592814162
 H         -7.2360097483       -4.6537241002        0.7445073779
 H         -5.4668245199       -4.5733686315        0.9275772001
 H         -4.3805616901       -2.7167994305        1.8903633254
 H         -2.7685586818       -0.9617837941        1.9098903316
 H         -2.5721853731        0.8179402690       -2.0269350286
 H         -1.7107861234        2.2904610960       -1.5835089420
 H         -0.8792511291       -0.5795025890       -1.0113224818
 H          0.0585291670        0.6371132779       -1.8896996401
 H         -1.4766559184        0.3900187094        1.8299835432
 H          0.3425748728        1.9796190944        0.1001587155
 H          2.8199242712       -0.0928850857        1.4515978709
 H          2.3896266848        1.5845742444        1.1301537484
 H          2.4118628763        1.2389936366       -1.2570680629
 H          2.3809970395       -0.5213133089       -1.0743036993
 H          4.5234234822        2.4746898890       -0.9325444516
 H          6.9556196231        2.4003482291       -0.8088260181
 H          8.9995480671        1.9943437031        0.2921756651
 H          9.1282911678        1.7481903522       -1.4737160446
 H         10.2416893360        0.9037859423       -0.3702932926
 H          7.1200790039       -4.0171103944        0.0607306706
 H          5.6774101567       -3.2841136345        0.8024082828
 H          5.7714283277       -3.4842163347       -0.9720798776
 H          4.3310813300       -1.7386579569       -0.3300254453
 H          0.9420872962       -1.7280690680        0.1146456353
 H         -0.4543985432       -1.4330554988        1.1561114197
 H          1.1462055324       -1.6455703074        1.8716103236
 H         -3.6983002141        3.0679859775       -0.4558964762
 H         -4.0629999053        1.9996183570        2.3900522104
 H         -5.2369044117        1.9727903309        1.0946963467
 H         -4.7374464787        3.5163824934        1.7721999679
 H         -0.4287656653        2.7724579188        2.0355972221
 H         -1.4498702632        3.7640256565        0.1642540989
 H         -2.4254821252        4.3415974770        1.5319019374
 H         -1.9058193981        2.4029999173        2.7231197617
