25
 energy: -42.064467100788 gnorm: 0.002545658899 xtb: 6.6.1 (8d0f1dd)
C            3.32174891281334        1.41122706163537        0.03365654100852
N            2.54696926273715        0.19877270444026       -0.00915197854070
C            3.19480234384105       -1.01566290248135       -0.01949302478617
N            2.66802073910545       -2.15679092890616       -0.03133160346383
C            0.50323447861912       -1.03699943985423       -0.01451752607342
C            1.17741639190854        0.15133373821845       -0.00776142966224
C            0.26273283950573        1.31294027578661       -0.01367319246568
O            0.65381857583481        2.46531667699806       -0.02626640313090
N           -1.08650143496901        1.00493981657020       -0.00663134364244
C           -2.03642554479590        2.10052714099521       -0.00452168879678
C           -1.64850300004504       -0.28029796449684       -0.00505130488272
O           -2.83808022432274       -0.45970235561591        0.00313329298041
N           -0.72787426680712       -1.29866753308391       -0.01361760266923
C           -3.11555918090478       -3.42130937768681        0.01596178832806
H            3.82441349526823        1.50630385865658        1.00038917378953
H            4.08035623095370        1.39962533374694       -0.75130625564655
H            2.67114334110481        2.27478539568962       -0.10620625766317
H            4.27834174310476       -0.96050772866541       -0.01705581946509
H           -1.48692678284761        3.04142059929453        0.00490221224218
H           -2.67009334962598        2.04237434176706       -0.89215068681612
H           -2.67978577513922        2.02874546501621        0.87499243969281
H           -2.73325107696228       -3.81232697558126        0.93874928935150
H           -2.80212867408766       -3.84754720986784       -0.91694464833624
H           -3.81652957411477       -2.60650417815281        0.02658217327494
H            1.61909204392564       -2.22375727282267       -0.03151452672669
