  72
        -99.29461495
 N         -1.6971354055        3.0394287678        2.3799925236
 C         -1.6790533528        2.3886294511        1.3153004093
 C         -2.8549437027        2.2295450567        0.3901533637
 C         -3.3364685818        0.7901619653        0.4401675733
 C         -4.3075808931        0.3424663546       -0.4583426385
 C         -4.7464210953       -0.9681489239       -0.4669468396
 O         -5.6905754035       -1.4651295617       -1.2772701553
 C         -6.3986973973       -0.6080517542       -2.1403696697
 C         -4.1716635888       -1.9607336379        0.4494686070
 O         -4.4933552050       -3.1559368538        0.4099819925
 C         -5.8642770324       -6.8101850199        1.0465883345
 C         -3.2161133086       -1.4359493654        1.3797857568
 C         -2.8269149957       -0.1221979125        1.3731453098
 C         -2.3333472334        2.5604657797       -1.0346520464
 C         -1.4728917268        1.4590826225       -1.6810530267
 C         -0.1388821919        1.3019620648       -1.0619374559
 N          0.4303911187        0.1507966301       -0.7437044109
 C          1.8077569646        0.1096768941       -0.3114172442
 C          2.7465445438       -0.3468536191       -1.4448278145
 C          4.1770071514       -0.2590090014       -0.9915745571
 C          4.8765578861        0.9325513419       -1.1037539722
 C          6.1884139875        1.0299782380       -0.6682954698
 C          6.8288961409       -0.0656647452       -0.1060911637
 O          8.0954857382       -0.0883069195        0.3436995944
 C          8.8857956491        1.0738020585        0.2374865176
 C          6.1172157906       -1.2922808402        0.0184192374
 O          6.8133734517       -2.3031141762        0.5708567926
 C          6.2088121335       -3.5676003089        0.7064301478
 C          4.8042361373       -1.3638836719       -0.4221727457
 C         -0.2519586119       -1.1137212071       -0.8873624163
 C         -4.0430436860        3.1740639518        0.7459784371
 C         -4.6748349162        2.7925070239        2.0818496986
 C         -3.6536752682        4.6494754267        0.7600374117
 H         -4.7341736797        1.0422296496       -1.1604519059
 H         -6.9027272120        0.1884279046       -1.5847371108
 H         -7.1423220018       -1.2321962714       -2.6319681498
 H         -5.7404277834       -0.1676843278       -2.8964057530
 H         -6.1895274374       -6.5341941851        2.0268407386
 H         -6.5430914248       -6.7490682951        0.2220851795
 H         -4.8531555324       -7.1163832326        0.8819388529
 H         -2.8144281294       -2.1313308892        2.1001752298
 H         -2.1174933552        0.2146025548        2.1150055862
 H         -3.1885828475        2.7382939033       -1.6860186874
 H         -1.7552412789        3.4843630070       -0.9906534640
 H         -2.0240663336        0.5209435793       -1.6910874151
 H         -1.3116653254        1.7648273908       -2.7225761932
 H         -0.7793866538        1.8783699188        0.9193277124
 H          0.4774426718        2.1860288356       -0.9811399079
 H          1.8969344540       -0.5763714647        0.5349794281
 H          2.1138673536        1.1039709354        0.0205519640
 H          2.5920316300        0.3016249753       -2.3091557847
 H          2.5048066737       -1.3701915426       -1.7330176896
 H          4.4048080132        1.7961338095       -1.5475422912
 H          6.7087460529        1.9673111738       -0.7767395309
 H          8.4624370186        1.9002929988        0.8162245152
 H          9.0066429698        1.3812726614       -0.8054918980
 H          9.8565658112        0.8052039127        0.6494242144
 H          6.9690942468       -4.2086121018        1.1483501306
 H          5.3396842226       -3.5276377148        1.3706434845
 H          5.9109399373       -3.9757709670       -0.2641930597
 H          4.2589308662       -2.2908672293       -0.3387418166
 H         -0.4454976402       -1.3397964664       -1.9377256017
 H         -1.2021155238       -1.1026495436       -0.3481235270
 H          0.3659574803       -1.9048128293       -0.4713022743
 H         -4.7973245665        3.0325304590       -0.0369161552
 H         -3.9505012312        2.9052411210        2.8828277140
 H         -5.0293171608        1.7641239539        2.0692525527
 H         -5.5197455572        3.4447469529        2.2850641189
 H         -2.9181722835        4.8386675412        1.5361348900
 H         -3.2560251253        4.9754844276       -0.1968627790
 H         -4.5348014171        5.2475542596        0.9746987995
 H         -0.8413860893        3.0962153947        2.9225662423
