25
 energy: -42.140316160695 gnorm: 0.006125523511 xtb: 6.6.1 (8d0f1dd)
C            3.32643323923211        1.11067052758046        0.70243621204042
N            2.48251318767189        0.16537951655086        0.01389799461502
C            2.90190980558601       -0.97836551312180       -0.62314972654565
N            1.99359822005085       -1.65362108741428       -1.19978653420752
C           -0.18546296143343       -1.80363921093250       -0.34982846412393
C            1.13066241835335        0.29866480804097       -0.12602480491594
C            0.73801669155293       -0.94854218723243       -1.00139950152792
O            0.41492107606545        1.15728523375996        0.29985312766593
N           -2.53769593557712        1.83736949446840       -0.59734616346169
C           -2.67816796456251        3.20063447932677       -0.29661328301398
C           -2.24706352574275        0.72150314720547       -0.36864529166439
O           -2.03566165560674       -0.43098044628722       -0.33569531325280
N           -0.60587339289408       -2.69746306884988        0.25987835257402
C           -1.41445887362486       -3.58024455052098        0.94111105197164
H            3.84996445468703        0.61992453168551        1.52323687021390
H            4.05585140038561        1.53495457159366        0.01226269797373
H            2.69580147357447        1.90530916936387        1.09765085954887
H            3.93741782229907       -1.27047467100763       -0.62735547180581
H           -1.73082610716938        3.60873389732581        0.05984383783173
H           -2.97845267206136        3.71448765175988       -1.20970158387662
H           -3.44702683138933        3.34213883425918        0.46497996387080
H           -0.96827435296336       -3.79028323802442        1.91482895147808
H           -1.48514926744549       -4.50817407804372        0.37014360217667
H           -2.40827312993556       -3.14679673878844        1.07253362504650
H            0.35572839500263       -0.59023253114835       -1.96593939071446
