  72
        -99.23831056
 N         -1.7428412870        2.6659075552        2.4951286491
 C         -1.7334769147        2.0928260365        1.3870200384
 C         -2.9068636894        2.0099438377        0.4507370427
 C         -3.4376400900        0.5839047822        0.4176976531
 C         -4.4255152361        0.2352576557       -0.5054494013
 C         -4.9547639908       -1.0439967771       -0.5517629942
 O         -5.9193801484       -1.4585806387       -1.3960302385
 C         -6.5413112537       -0.5262935363       -2.2493796057
 C         -4.4714397118       -2.0348695194        0.3468729538
 O         -5.0344998957       -3.2515873366        0.2230616519
 C         -4.6667533471       -4.2747161358        1.1188936512
 C         -3.4898878252       -1.6822092174        1.2595754659
 C         -2.9837789452       -0.3887359245        1.2958540663
 C         -2.3649030259        2.3995016854       -0.9490939829
 C         -1.4664146434        1.3312499554       -1.5987341204
 C         -0.1252376910        1.2250964524       -0.9810039320
 N          0.5025858012        0.0921797095       -0.6994838925
 C          1.8889909601        0.0973397068       -0.2947953030
 C          2.8183786420       -0.3500461438       -1.4397739157
 C          4.2512481366       -0.2681946354       -0.9943218767
 C          4.9449322542        0.9402011237       -1.1162219902
 C          6.2293940999        0.9898533137       -0.6728742038
 C          6.9183996390       -0.0558174887       -0.1135182390
 O          8.1858865952       -0.0261725063        0.3142511224
 C          8.8591314543        1.2036348157        0.1361487501
 C          6.2070396627       -1.2922288629        0.0147922992
 O          6.9139185878       -2.2977941774        0.5622857694
 C          6.3187061673       -3.5684707579        0.6901624398
 C          4.8909938625       -1.3626637856       -0.4223937370
 C         -0.1411267887       -1.1937618590       -0.8278044558
 C         -4.0748422335        2.9595703312        0.8540647352
 C         -4.7039533902        2.5374958046        2.1796472843
 C         -3.6592573413        4.4261987920        0.9232748472
 H         -4.7992938473        0.9804375232       -1.1876913256
 H         -7.0030840225        0.2884300467       -1.6836843391
 H         -7.3147966489       -1.0831717371       -2.7745518603
 H         -5.8363832389       -0.1144045487       -2.9786694378
 H         -4.8773522723       -3.9949472756        2.1552066727
 H         -5.2760927457       -5.1340517952        0.8461737903
 H         -3.6082784478       -4.5350485911        1.0178241965
 H         -3.1182946545       -2.4070495459        1.9656311127
 H         -2.2457265241       -0.1441730551        2.0441571877
 H         -3.2087942417        2.5790362705       -1.6140428896
 H         -1.8070556908        3.3327254396       -0.8650855566
 H         -1.9846274526        0.3738676282       -1.6059861651
 H         -1.3169551814        1.6388278928       -2.6417627467
 H         -0.8336175462        1.6149138506        0.9488624625
 H          0.4559878176        2.1324921325       -0.8984755839
 H          2.0160727137       -0.5729831923        0.5601109315
 H          2.1733876621        1.1045721907        0.0161914099
 H          2.6603233563        0.3063342494       -2.2969973337
 H          2.5747891881       -1.3708723622       -1.7365834875
 H          4.4729675364        1.8029256738       -1.5586632697
 H          5.8127843142        3.8765885579       -1.4487601761
 H          8.3563336530        2.0043721396        0.6868317375
 H          8.8955866863        1.4752297834       -0.9229371160
 H          9.8668894391        1.0612854585        0.5203440402
 H          7.0846819637       -4.2080675671        1.1232909770
 H          5.4525552701       -3.5381619489        1.3585575087
 H          6.0194348939       -3.9690517189       -0.2829591262
 H          4.3499274329       -2.2919947660       -0.3326403765
 H         -0.3293915975       -1.4379953546       -1.8752965217
 H         -1.0919985437       -1.2004735739       -0.2890023356
 H          0.5021059207       -1.9600582162       -0.4030973696
 H         -4.8377560152        2.8626568601        0.0734744688
 H         -3.9809279108        2.6367060319        2.9829067432
 H         -5.0499658620        1.5074348069        2.1412737016
 H         -5.5550319294        3.1768431316        2.3986833516
 H         -2.8767042039        4.5647210576        1.6630834025
 H         -3.3147516920        4.7973090775       -0.0383936970
 H         -4.5158439195        5.0245822365        1.2222191697
 H         -0.8829707891        2.6859590369        3.0337696662
