  25
        -42.13879803
 C          3.5432668802        0.9571356942        0.0244307176
 N          2.4794137626       -0.0097376585       -0.0106313863
 C          2.5927491500       -1.3334278881       -0.0312380664
 N          1.3691953821       -1.8816644687       -0.0332755250
 C          0.4134696632       -0.8802799814       -0.0349973465
 C          1.1379076722        0.3286899137       -0.0059881784
 C         -0.4586765846        2.0756805231        0.0869945023
 O          0.8107609872        1.6148951422        0.0254964174
 N         -1.5093212848        1.2624004191        0.0528446839
 C         -2.9344316887        1.4122833700       -0.2018998898
 C         -1.7544071018       -0.0541894074        0.3052090558
 O         -3.1105464464        0.0134067860       -0.0677118078
 N         -0.9177290401       -1.1025978833       -0.0124550145
 C         -1.4721951102       -2.4420392030       -0.0218960390
 H          3.6903868344        1.3198143464        1.0437402784
 H          4.4655032641        0.5040373933       -0.3333807590
 H          3.2775662144        1.8041837593       -0.6078971930
 H          3.5140837361       -1.8779796093       -0.0586978279
 H         -0.5570075157        3.1410432863        0.0519107372
 H         -3.1605124752        1.7642890351       -1.2118528968
 H         -3.4838912266        1.9878978658        0.5486703927
 H         -1.1924979195       -2.9990129111        0.8751453265
 H         -1.1395904671       -2.9743152277       -0.9131362865
 H         -2.5551789620       -2.3455796063       -0.0538374498
 H          1.1693407776       -2.8689545856       -0.0589465102
