  25
        -42.11223795
 C          3.0136347368        0.2628032007       -0.3564980056
 N          1.8438464689       -0.0479833713       -0.0404036097
 C          4.1283578724        0.3652156439        0.5912253825
 N          0.7389012645       -2.6175027321       -0.1842639422
 C         -0.4972789901       -0.7554592779       -0.0282275819
 C          0.5899591213        0.1259441359       -0.0416014398
 C          0.0177371525        1.5505067973        0.0318912254
 O          0.6668366636        2.5538335078        0.0383533778
 N         -1.3310420335        1.3895357402        0.0505273879
 C         -2.2716110388        2.4876865108        0.0883399194
 C         -1.7369391895        0.0548884275        0.0065356918
 O         -2.8839119947       -0.2996085300       -0.0172352817
 N         -0.4010706644       -2.1041621799       -0.1070008147
 C         -1.6121027679       -2.9008164437       -0.0764179486
 H          4.1121209418        1.3741842240        1.0150631099
 H          5.0873114372        0.2364643068        0.0868944225
 H          3.2318597547        0.4186777271       -1.4151142288
 H          4.0378318889       -0.3325173620        1.4245157968
 H         -1.7080631066        3.4178531958        0.0857525355
 H         -2.9249427335        2.4416086866       -0.7827814442
 H         -2.8816228602        2.4206501493        0.9888019511
 H         -1.7542032984       -3.2977530776        0.9314786220
 H         -1.5154979793       -3.7401745483       -0.7657766629
 H         -2.4848158297       -2.3031322547       -0.3329223362
 H          0.7275267896       -3.6360740119       -0.2292023057
