25
 energy: 0.000000000000 xtb: 6.6.1 (8d0f1dd)
C            3.23720163006194        1.16630919979326        0.08434469647475
N            2.29877817382611        0.07527477071623        0.03981603040599
C            2.58028210190900       -1.21425402444508        0.03006176031096
N            1.43813958087363       -1.93419271955128        0.00098261760884
C            0.39035688448383       -1.05887472636071       -0.00790371836672
C            0.93510056364412        0.21347819449412        0.01709077491437
C            0.09450143893243        1.40504303904423       -0.00410947031874
O            0.49712751527797        2.54126714362870       -0.00342325688240
N           -1.25076640035757        1.06271879480407       -0.03085478223738
C           -2.21907211982101        2.15522099834493       -0.05001256985998
C           -1.81739487048744       -0.20012725993278       -0.04692818574614
O           -2.99983886758376       -0.37846417018721       -0.07008878229737
N           -0.92618586207120       -1.30210215599479       -0.03682761578324
C           -1.46982264913417       -2.64643102187190       -0.06029820460571
H            3.71247264356769        1.21471455160235        1.06488849150277
H            4.00791497605742        1.03430808813993       -0.67357694370751
H            2.69910007168542        2.09770118228144       -0.09130154882931
H            3.56654120610678       -1.63682992603973        0.04233140067262
H           -1.67107961066214        3.09322851271934       -0.02552706933167
H           -2.82428953597071        2.09428624779827       -0.95318082946668
H           -2.87644029173232        2.07745725625962        0.81450067533302
H           -1.17061996399332       -3.19584890659852        0.83242232437030
H           -1.14560257411436       -3.17511610292205       -0.95688275822323
H           -2.55549792440841       -2.55659984320617       -0.07459039797972
H            1.38130855184625       -2.94313852034425       -0.01389874181052
25
 energy: -2.535141922843 xtb: 6.6.1 (8d0f1dd)
C            3.23865494331962        1.18395202038733        0.08781960646319
N            2.33088227248378        0.07855906653141        0.03885693795192
C            2.64530214835888       -1.26475540897066        0.02905545893269
N            1.44280871470999       -1.93822489000320        0.00262205369820
C            0.40653530052895       -1.05060129026093       -0.00610360248720
C            0.94344412215205        0.22360829881546        0.01700404740298
C            0.09679094748373        1.40032905373841       -0.00335413585370
O            0.48328251181904        2.56960339245478       -0.00297558080844
N           -1.26917393673820        1.05952264170743       -0.03040806564557
C           -2.24091100728270        2.15169069252797       -0.05115060313325
C           -1.82736333548145       -0.19298868587376       -0.04694715692569
O           -3.02395723262386       -0.37863525230463       -0.07190750858513
N           -0.93070567191818       -1.29007912779938       -0.03530554101648
C           -1.47514100455463       -2.63011905144684       -0.05939788451390
H            3.70654441317182        1.24206288243139        1.07297018203913
H            4.00783846510444        1.05769797494296       -0.67255644980165
H            2.68179314307872        2.10507433301232       -0.09252409413019
H            3.66304064853081       -1.78324182827156        0.02979007360618
H           -1.69417183715111        3.09173392873908       -0.02716411036631
H           -2.84942181737581        2.09536255947639       -0.95410626172590
H           -2.90311673391151        2.08002957645926        0.81192540815289
H           -1.17200743984125       -3.18148617900700        0.83227876711174
H           -1.14773982994888       -3.15949721203896       -0.95592997001088
H           -2.56147132766375       -2.54239054828820       -0.07332907471223
H            1.36047821168573       -2.93817834478706       -0.01212859949513
25
 energy: 6.422586344254 xtb: 6.6.1 (8d0f1dd)
C            3.23714042889992        1.19866211937837        0.09134250549488
N            2.36254853336173        0.06912078216167        0.03547385875404
C            2.70730680853377       -1.31530133682714        0.02820684549598
N            1.44782745224063       -1.93609444670923        0.00415055610984
C            0.42359594993728       -1.04279359458839       -0.00402833061435
C            0.95619006768641        0.23117837591480        0.01680729825719
C            0.10331893427892        1.39228645316395       -0.00213912820549
O            0.45727777700869        2.57998633644037       -0.00217940952365
N           -1.28438856684293        1.06078881454279       -0.02929796099333
C           -2.26237497922162        2.15077604861047       -0.05242168984494
C           -1.82771918541528       -0.18434947744965       -0.04640825915910
O           -3.02782485955667       -0.37989556783261       -0.07385301510899
N           -0.92966487307590       -1.27441619618040       -0.03269840662659
C           -1.47838569601793       -2.61007324795743       -0.05797515121190
H            3.69694434542638        1.28190943854599        1.08033465501354
H            4.01293873509246        1.09582727868967       -0.66613721363530
H            2.65775077831130        2.10765383357478       -0.09517270935764
H            3.74476061207440       -1.94850774920567        0.01226179220560
H           -1.72502685588124        3.09667105559148       -0.02924383732305
H           -2.87546383439104        2.09298574412029       -0.95404375712476
H           -2.93110798318250        2.07984435229631        0.80758895774010
H           -1.17560883213094       -3.16450498872804        0.83266632509148
H           -1.15276731830087       -3.14038554021724       -0.95541716375361
H           -2.56526186183825       -2.52096731388644       -0.07108656219565
H            1.34020909093953       -2.93137257127667       -0.00969630333702
25
 energy: 13.447331082504 xtb: 6.6.1 (8d0f1dd)
C            3.23214972135936        1.20559596514125        0.09239106488210
N            2.37449473328882        0.06067450883356        0.03064746740254
C            2.73204522280865       -1.33956167240256        0.02858379775283
N            1.45287511491443       -1.93749867643958        0.00350777549332
C            0.43176889741275       -1.04319848722390       -0.00411090311627
C            0.96286761061595        0.23271199260428        0.01533757524947
C            0.11006094316648        1.39228398265567       -0.00200025142730
O            0.44590611992246        2.58221054339100       -0.00149290599071
N           -1.28774629303088        1.06618412540965       -0.02830433657754
C           -2.27104394218349        2.15218278396356       -0.05254881775854
C           -1.82443364859250       -0.18017580624470       -0.04593739513021
O           -3.02388751816757       -0.38098686104566       -0.07433303431452
N           -0.92561409791822       -1.26767152232686       -0.03106210027958
C           -1.48005538744960       -2.60043915980601       -0.05696263835825
H            3.68429959477919        1.30492066595210        1.08414115811487
H            4.01633022410574        1.12133646499835       -0.65924494959380
H            2.63957332825485        2.10601301611762       -0.09927307975484
H            3.78447600346505       -2.03072791729502        0.00472163953335
H           -1.74300881979795        3.10274206068807       -0.02993048311321
H           -2.88567438924463        2.08908355797787       -0.95353525075424
H           -2.94211631397785        2.07714500477169        0.80605028321951
H           -1.17965057947318       -3.15587425199390        0.83343188434112
H           -1.15859871622832       -3.13005960960528       -0.95595522564217
H           -2.56691819124926       -2.50552234854517       -0.06892484139122
H            1.33411505115597       -2.93233975740400       -0.00816253663943
25
 energy: 15.819625146594 xtb: 6.6.1 (8d0f1dd)
C            3.22922516279737        1.20732005244238        0.09233823777217
N            2.37462344788780        0.05961124338349        0.02750813807330
C            2.73472212051568       -1.34288288829141        0.03022712032653
N            1.45516883781575       -1.93756548305608        0.00302655979961
C            0.43251837215233       -1.04456814599950       -0.00443040553192
C            0.96317587836474        0.23297580989710        0.01457502626497
C            0.11255273644397        1.39472256023164       -0.00229208975719
O            0.44260386132424        2.58294842299172       -0.00136991600771
N           -1.28761445517513        1.06878453990144       -0.02786646784863
C           -2.27204197538417        2.15313074104415       -0.05232057949785
C           -1.82376318762586       -0.17942299624829       -0.04580849463059
O           -3.02247275952230       -0.38087767653155       -0.07452339055487
N           -0.92421585424705       -1.26662223573158       -0.03036877893332
C           -1.48076820955381       -2.59925069260713       -0.05675704509456
H            3.67784105322432        1.30825425123070        1.08507120164471
H            4.01604427768602        1.12637426188934       -0.65627859946597
H            2.63547462125406        2.10569539652457       -0.10154885992757
H            3.79999248112863       -2.05049459234285        0.00289774206033
H           -1.74639109345727        3.10450837126839       -0.02978556617700
H           -2.88652717707448        2.08833908345302       -0.95338574531631
H           -2.94298563215895        2.07653582235741        0.80633483872010
H           -1.18112668284104       -3.15479200618082        0.83338445154026
H           -1.16074559545617       -3.12826069324064       -0.95621922004105
H           -2.56765109607070       -2.50282735159928       -0.06829723385569
H            1.33457553590821       -2.93260719261421       -0.00707702741447
25
 energy: 17.887866500122 xtb: 6.6.1 (8d0f1dd)
C            3.22758456585711        1.20794849399256        0.09224587449712
N            2.37240441616056        0.06056996383807        0.02382884457960
C            2.73229081935886       -1.34132908528868        0.03343145247243
N            1.45660024554216       -1.93666467961248        0.00266176180863
C            0.43123950789885       -1.04569616975019       -0.00474220531757
C            0.96196712035618        0.23316641842702        0.01403806173296
C            0.11418235691775        1.39757178954628       -0.00274223145957
O            0.43986216862162        2.58413615348303       -0.00138795749772
N           -1.28741172852879        1.07005930506733       -0.02748986920188
C           -2.27209729125236        2.15344979158338       -0.05207014723517
C           -1.82444440714894       -0.17943510049984       -0.04577293884098
O           -3.02241793913422       -0.38042933766335       -0.07482185890380
N           -0.92392291466358       -1.26640689635548       -0.02966089013523
C           -1.48156677809778       -2.59958105014141       -0.05671374132762
H            3.67365984722801        1.30744360285794        1.08576350308757
H            4.01586891479151        1.12673895869294       -0.65416752312886
H            2.63537802623887        2.10609515509722       -0.10314858642195
H            3.81643559079784       -2.06115170005477        0.00083157297325
H           -1.74734566149783        3.10500611209203       -0.02950357939541
H           -2.88638689919516        2.08846504107232       -0.95322976208185
H           -2.94281751908920        2.07661194285080        0.80672754781686
H           -1.18195396780898       -3.15491211877330        0.83319272883360
H           -1.16183365907728       -3.12773550289394       -0.95643704724125
H           -2.56845415313517       -2.50290765362567       -0.06809561214708
H            1.33539400679619       -2.93198483176979       -0.00570350131879
25
 energy: 19.091047661913 xtb: 6.6.1 (8d0f1dd)
C            3.22785530931369        1.20769893492540        0.09222792257110
N            2.37053187391531        0.06210624200398        0.02147318729663
C            2.72812618574479       -1.33781811165194        0.03712633365594
N            1.45636058057169       -1.93565205360284        0.00252581734552
C            0.42948847710952       -1.04561870180277       -0.00512354456301
C            0.96062779701525        0.23336690951462        0.01372443474861
C            0.11427214036099        1.39862089480015       -0.00325588027923
O            0.43899830908097        2.58508969688911       -0.00153830473370
N           -1.28781556391769        1.06955477461660       -0.02741546963576
C           -2.27202512838269        2.15320738616633       -0.05190532981958
C           -1.82582416734881       -0.17970168369404       -0.04586344943104
O           -3.02357422405517       -0.38014738592250       -0.07495957767951
N           -0.92477525628131       -1.26655607071790       -0.02944833822606
C           -1.48199706539329       -2.60031605718115       -0.05680435812286
H            3.67357874128142        1.30505926215491        1.08603398005657
H            4.01612128525047        1.12460151933451       -0.65399128101279
H            2.63738948302260        2.10696378178836       -0.10307583292008
H            3.82789498381078       -2.06334851785827       -0.00073408808441
H           -1.74676938987781        3.10460128270220       -0.02926112058052
H           -2.88633068997708        2.08905496830297       -0.95307735617772
H           -2.94269453122084        2.07705341547626        0.80696595603147
H           -1.18189796689713       -3.15542245642586        0.83305190706993
H           -1.16164853861743       -3.12806491317258       -0.95652141606446
H           -2.56884269179484       -2.50424670981119       -0.06826109939107
H            1.33516471522281       -2.93105780466234       -0.00485919590672
25
 energy: 19.751525229682 xtb: 6.6.1 (8d0f1dd)
C            3.22850226745501        1.20737498461918        0.09223358661183
N            2.36996205744599        0.06294812980198        0.02050375611287
C            2.72520928414569       -1.33532349863568        0.04067040482655
N            1.45547181646095       -1.93525608295048        0.00252117610957
C            0.42851611798847       -1.04493042722006       -0.00563633273455
C            0.95989033653049        0.23362228332585        0.01336175078398
C            0.11353126468960        1.39830841217871       -0.00369144499677
O            0.43945158904247        2.58538435337701       -0.00171513068127
N           -1.28856934902436        1.06876903691157       -0.02752506412863
C           -2.27222058920591        2.15310339245885       -0.05181904710402
C           -1.82681339211500       -0.17969401156027       -0.04596219019732
O           -3.02467182717456       -0.38015644598493       -0.07487218180892
N           -0.92574799059883       -1.26668376480250       -0.02967830669938
C           -1.48207707434958       -2.60065938783148       -0.05692880585776
H            3.67490366577143        1.30347388670517        1.08597572614635
H            4.01619917480008        1.12316285546045       -0.65471675761901
H            2.63869408424317        2.10766224712633       -0.10221029947425
H            3.83477400445180       -2.06350006646417       -0.00194494635037
H           -1.74612974968500        3.10425274672031       -0.02911093734324
H           -2.88660220273358        2.08962251941631       -0.95297616242870
H           -2.94287786586209        2.07747272460554        0.80708913955392
H           -1.18157261105236       -3.15568251317111        0.83299199699588
H           -1.16117207603584       -3.12849266449306       -0.95653311653978
H           -2.56888981235700       -2.50517882087619       -0.06846648874433
H            1.33445354510518       -2.93057128654529       -0.00452642828536
25
 energy: 20.032929608424 xtb: 6.6.1 (8d0f1dd)
C            3.22870616966972        1.20727627646633        0.09221743300210
N            2.37020863513763        0.06296278375642        0.02043625289410
C            2.72427342291444       -1.33460357102643        0.04320858020590
N            1.45486345620747       -1.93540300517549        0.00255105736106
C            0.42843067940836       -1.04440577135667       -0.00613845478551
C            0.95972606678672        0.23383044260877        0.01289834854053
C            0.11273063814396        1.39776693932290       -0.00395238066121
O            0.44012631356337        2.58522702925732       -0.00182862595203
N           -1.28907813331115        1.06854445410360       -0.02765238569466
C           -2.27249261092433        2.15327142047077       -0.05176355295794
C           -1.82703148987656       -0.17948002691512       -0.04600641457774
O           -3.02503585636828       -0.38028402416081       -0.07466413179645
N           -0.92618349150668       -1.26674221390736       -0.03005797414896
C           -1.48200444393583       -2.60060668785187       -0.05702407209107
H            3.67568094443317        1.30315910355344        1.08580928139384
H            4.01603064726642        1.12312890658526       -0.65528463847921
H            2.63871788826170        2.10783829885729       -0.10159542522433
H            3.83754608892187       -2.06398105280392       -0.00279842012956
H           -1.74592333343900        3.10423343196894       -0.02902784456812
H           -2.88689959650095        2.08993022684865       -0.95290366352211
H           -2.94309557498714        2.07768298601138        0.80716903761750
H           -1.18138883623364       -3.15563857703135        0.83296978770255
H           -1.16098203718618       -3.12869697672654       -0.95653704972493
H           -2.56882872499536       -2.50536822056331       -0.06855854163015
H            1.33411784648646       -2.93061357012018       -0.00443230662631
25
 energy: 20.204254906764 xtb: 6.6.1 (8d0f1dd)
C            3.22858014737891        1.20731450277583        0.09216698875491
N            2.37067617615197        0.06261799155713        0.02064489099723
C            2.72418697905411       -1.33465383759807        0.04594280321737
N            1.45446946045152       -1.93574872057374        0.00257020558892
C            0.42871785376035       -1.04406049880501       -0.00678017315357
C            0.95974068569568        0.23401695073307        0.01215756107691
C            0.11185698485440        1.39735106299717       -0.00417714737084
O            0.44071683760359        2.58490757583216       -0.00190373994384
N           -1.28932929842781        1.06873271774130       -0.02777182715281
C           -2.27274878584604        2.15358175296417       -0.05168452604415
C           -1.82684785981086       -0.17919419431871       -0.04601025461739
O           -3.02496862925097       -0.38038334096664       -0.07435810395257
N           -0.92630066632668       -1.26678698617260       -0.03055137324538
C           -1.48191061767086       -2.60039893859577       -0.05712882289453
H            3.67592331223147        1.30338759662691        1.08561170534276
H            4.01574554134815        1.12377632262714       -0.65562731690525
H            2.63812233139771        2.10771536945290       -0.10125797230066
H            3.83885132193244       -2.06503257498345       -0.00384569370021
H           -1.74596211832898        3.10439771990309       -0.02893259604948
H           -2.88714842458935        2.09010585761068       -0.95279837399469
H           -2.94324957338494        2.07776841546233        0.80727309514612
H           -1.18132522357880       -3.15544728380388        0.83293316545978
H           -1.16102275775431       -3.12879061597490       -0.95656516223666
H           -2.56877894571926       -2.50524061586127       -0.06859626766227
H            1.33421993676486       -2.93090762645779       -0.00427716821241
