25
 energy: 0.000000000000 xtb: 6.6.1 (8d0f1dd)
C            3.23720132972391        1.16630909158653        0.08434468864950
N            2.29877796055224        0.07527476373246        0.03981602671198
C            2.58028186251803       -1.21425391179017        0.03006175752192
N            1.43813944744728       -1.93419254010258        0.00098261751768
C            0.39035684826767       -1.05887462812143       -0.00790371763344
C            0.93510047688824        0.21347817468824        0.01709077332874
C            0.09450143016486        1.40504290868848       -0.00410946993748
O            0.49712746915594        2.54126690785742       -0.00342325656480
N           -1.25076628431515        1.06271869620815       -0.03085477937476
C           -2.21907191394203        2.15522079838987       -0.05001256521996
C           -1.81739470187490       -0.20012724136556       -0.04692818139228
O           -2.99983858926755       -0.37846413507442       -0.07008877579474
N           -0.92618577614240       -1.30210203518959       -0.03682761236648
C           -1.46982251276835       -2.64643077634382       -0.06029819901142
H            3.71247229913541        1.21471443890471        1.06488839270555
H            4.00791460421487        1.03430799217987       -0.67357688121503
H            2.69909982127087        2.09770098766290       -0.09130154035862
H            3.56654087521359       -1.63682977417947        0.04233139674524
H           -1.67107945562430        3.09322822573871       -0.02552706696334
H           -2.82428927394145        2.09428605349656       -0.95318074103337
H           -2.87644002486466        2.07745706351925        0.81450059976605
H           -1.17061985538665       -3.19584861009707        0.83242224714061
H           -1.14560246782873       -3.17511580834413       -0.95688266944647
H           -2.55549768731684       -2.55659960601237       -0.07459039105944
H            1.38130842369251       -2.94313824728853       -0.01389874052104
25
 energy: -6.185362045697 xtb: 6.6.1 (8d0f1dd)
C            3.24246044628416        1.17826233195173        0.08712762192856
N            2.32398787186806        0.09043187155255        0.03456140210051
C            2.63183659813465       -1.26053012035480        0.03302467383767
N            1.43306018398359       -1.93998250633637        0.00341221556856
C            0.41039724614606       -1.05945203599634       -0.00650340696188
C            0.93475039946866        0.22490077196027        0.01608329246584
C            0.11984335778785        1.38401299383711       -0.00367478492763
O            0.48827230129556        2.56241857465491       -0.00469330697727
N           -1.26750525244333        1.05133485494889       -0.03073675860982
C           -2.22395750358001        2.14877959822725       -0.04969500319432
C           -1.81521052190742       -0.19432950459860       -0.04668626844725
O           -3.01373016153373       -0.38400379619021       -0.07021942746717
N           -0.93238975390446       -1.29556915535696       -0.03594584430700
C           -1.47242554531012       -2.63618658465720       -0.06042108134511
H            3.71461887223357        1.23127897204917        1.07159480008739
H            4.01302762227658        1.05059649774151       -0.67390130906393
H            2.69063799114584        2.10130669692711       -0.09242854525764
H            3.60634169821358       -1.72500161949572        0.03342840651406
H           -1.67048063199522        3.08548088488425       -0.02568582532665
H           -2.83152753834070        2.09352029079261       -0.95333998500842
H           -2.88244313088954        2.07695785317927        0.81598868027656
H           -1.17096903670200       -3.19041246326386        0.83126836356787
H           -1.14658715919607       -3.16878928832509       -0.95688629109077
H           -2.55860331955303       -2.54791149969910       -0.07444672681694
H            1.36601136974930       -2.94235657794515       -0.01254336773565
25
 energy: -4.755486712080 xtb: 6.6.1 (8d0f1dd)
C            3.24558045357430        1.18200805122717        0.08868311787929
N            2.34345554943745        0.07878549545546        0.03342197056243
C            2.65999943112480       -1.28331503354229        0.03172102161266
N            1.44264541183555       -1.94078609218255        0.00266333326240
C            0.42018072712906       -1.05637565299403       -0.00565729898891
C            0.94927401645168        0.22574997321540        0.01629533354036
C            0.12617370934007        1.38636849657202       -0.00319925618926
O            0.48532986999277        2.56700818134023       -0.00363023361855
N           -1.26669222858475        1.05299467449833       -0.03042681567643
C           -2.22911967205166        2.14825139211618       -0.05057836852172
C           -1.81495139881963       -0.19260205767501       -0.04654809163878
O           -3.01333368136030       -0.38424117891975       -0.07091585283998
N           -0.92683649742008       -1.29055812704313       -0.03459210287435
C           -1.47104608862999       -2.63121287027753       -0.05932530422099
H            3.71523531804493        1.24125125515772        1.07406520911549
H            4.01629943535492        1.06572751927410       -0.67325403042139
H            2.68088869767548        2.09895960009132       -0.09082515491142
H            3.63182042403090       -1.80460387127553        0.02162672072404
H           -1.67976786255214        3.08677151445719       -0.02661087795048
H           -2.83858437206809        2.09397936043844       -0.95361481095443
H           -2.89073298455945        2.07811590434171        0.81344318632352
H           -1.17068841647703       -3.18667361529329        0.83196059854614
H           -1.14640617413242       -3.16453554864537       -0.95575185622072
H           -2.55776964484847       -2.54070736569078       -0.07318482006842
H            1.35639049987253       -2.94145870493497       -0.01202065490335
25
 energy: -1.877897802012 xtb: 6.6.1 (8d0f1dd)
C            3.24744692232985        1.18552800729756        0.08973371101919
N            2.36231654042482        0.06654891221626        0.03149828869334
C            2.68749423636396       -1.30803944387686        0.03096788689935
N            1.44992727812302       -1.94011758655760        0.00324328771959
C            0.42906222307098       -1.05231747587769       -0.00475961248659
C            0.96281787352135        0.22714321095747        0.01537058226326
C            0.12938778140943        1.38960832874352       -0.00442257358696
O            0.47986177383695        2.57188712495794       -0.00331514994776
N           -1.26691963834414        1.05507971652519       -0.03014451147269
C           -2.23434753872811        2.14792239222884       -0.05122427731291
C           -1.81476472706560       -0.18999413317483       -0.04621735649791
O           -3.01346393590731       -0.38333522809490       -0.07135286543061
N           -0.92199138207863       -1.28480570249635       -0.03316332310200
C           -1.47026146612243       -2.62543449090217       -0.05873669262320
H            3.71368884811206        1.25176614991786        1.07618702493434
H            4.01932168206912        1.07940868386221       -0.67173665448004
H            2.67129907159313        2.09675336475708       -0.09117074820894
H            3.65729183518760       -1.88653827038348        0.01045212738916
H           -1.68843472818449        3.08803829050689       -0.02733044972475
H           -2.84494891285956        2.09276678895885       -0.95399127641373
H           -2.89774992669878        2.07750181961970        0.81191895316232
H           -1.17067189616564       -3.18195465240049        0.83205590987204
H           -1.14663463990220       -3.15901822689049       -0.95531719862847
H           -2.55757064473364       -2.53441884493712       -0.07241973716976
H            1.34630854449974       -2.93869254711623       -0.01099186841722
25
 energy: 2.550638610425 xtb: 6.6.1 (8d0f1dd)
C            3.24653832753975        1.18920130979566        0.09028223064831
N            2.37801270398975        0.05384247846991        0.02914258906664
C            2.71370648008350       -1.33404897346119        0.03133855245996
N            1.45570402580660       -1.94110892443054        0.00688302749413
C            0.43582027803721       -1.05099304095722       -0.00430683755508
C            0.97008188798175        0.22727528758972        0.01410785032484
C            0.12988480723738        1.39192112649567       -0.00810321765329
O            0.47171420424090        2.57547502911996       -0.00418768450699
N           -1.26853427795001        1.05678068785842       -0.03038898292216
C           -2.23904030479811        2.14786366356785       -0.05130963962101
C           -1.81492585691355       -0.18795409273834       -0.04637937224788
O           -3.01415061693095       -0.38266909136249       -0.07213054430849
N           -0.91870803143322       -1.28039577282743       -0.03204597647526
C           -1.47111942877796       -2.62048983928134       -0.05880832528422
H            3.71064768385631        1.26532180700718        1.07720384384961
H            4.02068626312884        1.09436375855143       -0.66989756371220
H            2.65991869544396        2.09476745369311       -0.09296214032001
H            3.68959364285369       -1.96456762303619        0.00321415170830
H           -1.69430794593419        3.08846280178007       -0.02723067622346
H           -2.85059235880705        2.09199143504491       -0.95378764002265
H           -2.90298433320910        2.07652809196224        0.81172797758019
H           -1.17287196591809       -3.17828215042583        0.83148339608910
H           -1.14871588545752       -3.15464472154219       -0.95542110622810
H           -2.55877724665189       -2.52862039373472       -0.07260257051561
H            1.33557617887732       -2.93781091709358       -0.00812577373382
25
 energy: 8.536797561661 xtb: 6.6.1 (8d0f1dd)
C            3.24485357533124        1.19286215876443        0.09296170001589
N            2.38610498329079        0.04806113033857        0.02478560140770
C            2.73520751644087       -1.35064228873714        0.04300368351264
N            1.46107388419973       -1.93827866388242        0.00628951192628
C            0.43760325397549       -1.04812412833051       -0.00572531622369
C            0.97214390289339        0.22933915063216        0.01332150811949
C            0.12714605344721        1.39595136017110       -0.01071768862164
O            0.46166637356169        2.58010482630527       -0.00437434151698
N           -1.27235899174842        1.05914150329629       -0.03058326663413
C           -2.24624061916238        2.14851280603114       -0.05364191906393
C           -1.81638527716072       -0.18622146981310       -0.04612963480957
O           -3.01530135952484       -0.38391207837029       -0.07338700382597
N           -0.91674396843998       -1.27632423941903       -0.03035133066950
C           -1.47062104534421       -2.61609110593609       -0.05711975646494
H            3.70900827313551        1.27668612622145        1.07997017727675
H            4.02142132673784        1.10511329352003       -0.66567376549318
H            2.65075839258369        2.09323226957765       -0.09323362487694
H            3.74070313327655       -2.02094496702903       -0.01117997226091
H           -1.70387043392968        3.09048492664320       -0.02999487143169
H           -2.85840927058823        2.09154821999238       -0.95587492041119
H           -2.91194491556657        2.07781093302169        0.80822271258220
H           -1.17012801832702       -3.17398237916128        0.83219851765796
H           -1.15118365131190       -3.15023254376091       -0.95477940716727
H           -2.55836580092607       -2.52260895214633       -0.06761618925776
H            1.33326070939037       -2.93307993903140       -0.01006659695212
25
 energy: 16.399882664294 xtb: 6.6.1 (8d0f1dd)
C            3.23944603889393        1.19853485587234        0.09466006316187
N            2.38206192238299        0.05312873169204        0.02149072604160
C            2.73796931834799       -1.34928947923462        0.08378521332181
N            1.46093800640934       -1.93288165148461        0.00746998774900
C            0.43433451464788       -1.04423647136903       -0.01017646460744
C            0.96751053305340        0.23328020483628        0.00752837040572
C            0.12204379590581        1.40159350511116       -0.01609976037497
O            0.45378434814269        2.58483815591097       -0.00792207078978
N           -1.27649071814474        1.06298888535855       -0.03120955972230
C           -2.25384096524614        2.15004902780507       -0.05321403088204
C           -1.81908793522131       -0.18423955465672       -0.04674259300374
O           -3.01708408351966       -0.38330396769745       -0.07724075621227
N           -0.91870908612963       -1.27250227372559       -0.03002063123043
C           -1.47152979875305       -2.61166855020782       -0.05643387845103
H            3.69985712267448        1.28934082649537        1.08375493667975
H            4.02263639811606        1.11329841974618       -0.65840124184068
H            2.64000541447866        2.09261177266408       -0.09927008676581
H            3.80474444632900       -2.06650305496602       -0.03330538906788
H           -1.71453514654384        3.09380794313516       -0.03030254119286
H           -2.86986713147935        2.09329941140598       -0.95299950361331
H           -2.91847405177790        2.07867604927810        0.80926655552904
H           -1.16941167363511       -3.17059705785865        0.83163159898774
H           -1.15289047229363       -3.14313744982455       -0.95568608974552
H           -2.55885912886659       -2.51532623213808       -0.06510105079669
H            1.33256503892939       -2.92689775879725       -0.00629603210550
25
 energy: 45.608112244816 xtb: 6.6.1 (8d0f1dd)
C            3.22321582911048        1.20945973899136        0.09233558385380
N            2.33590509548154        0.07237525928083        0.04032138982924
C            2.65144143455448       -1.25199181020196        0.15265276984246
N            1.44810171621514       -1.89553486154006        0.02396091418497
C            0.40429329395742       -1.02052333538918       -0.02191809726896
C            0.94084094881822        0.25091306562508       -0.00901458660999
C            0.09185038300781        1.42361900500359       -0.02261692561941
O            0.43283131682719        2.59090391790501       -0.00320705652780
N           -1.28460335393230        1.07457320174982       -0.02864296223450
C           -2.26650810167198        2.15485267029584       -0.05224386983873
C           -1.83225609724114       -0.18468369584594       -0.04819855662442
O           -3.02818456806857       -0.37493793840996       -0.07457538870416
N           -0.93683292136091       -1.26236811857878       -0.03703239639353
C           -1.47741863641738       -2.60736650130879       -0.05895690486365
H            3.69147778327632        1.28907311801102        1.07641649487054
H            4.00854755759255        1.12016917390143       -0.65930091415501
H            2.63612370144048        2.10920895737055       -0.10046984222898
H            4.16225353096414       -2.34993844838798       -0.09200300849431
H           -1.72633956304579        3.09790103391383       -0.02907120373433
H           -2.87706701826087        2.09240826337941       -0.95458242431081
H           -2.93199317658623        2.08020164644797        0.80811628304279
H           -1.17523918065331       -3.16261336723539        0.83105267202545
H           -1.15238639437387       -3.13874063352520       -0.95516335592220
H           -2.56406685961905       -2.51328932262603       -0.07130070163927
H            1.34767798932515       -2.89700505910858        0.00671743656535
25
 energy: 46.462982924142 xtb: 6.6.1 (8d0f1dd)
C            3.21543583700885        1.21665462175414        0.09568692373701
N            2.32074639361916        0.08312771328819        0.04927427989220
C            2.63898691729695       -1.23268596216948        0.15396883486698
N            1.44191550125291       -1.88274119293891        0.03055886477888
C            0.39362057890969       -1.01233541891527       -0.01967017188244
C            0.92923807256027        0.25857802326088       -0.00491111695177
C            0.07980756762745        1.43133078241315       -0.02014017767444
O            0.42181440039660        2.59514207163119       -0.00534686081226
N           -1.29057477617558        1.07975355949708       -0.03096108318169
C           -2.27458962176508        2.15705229042352       -0.05241461117176
C           -1.83920443043259       -0.18329869050019       -0.05007021390504
O           -3.03479373242148       -0.37095636327811       -0.07563196609733
N           -0.94482721390968       -1.25697212882546       -0.03913871728886
C           -1.48095316051380       -2.60313572851865       -0.05847332913903
H            3.68057464427257        1.30179061728288        1.08076480121418
H            4.00564410097677        1.12022197032586       -0.64901078393479
H            2.63766336406201        2.11871702766575       -0.10894012662868
H            4.28564696527818       -2.44087603062708       -0.10236224754895
H           -1.73613111390819        3.10111137446211       -0.02948871961586
H           -2.88664305247498        2.09048587973423       -0.95314392222332
H           -2.93774099893609        2.07749106827331        0.80901960339054
H           -1.17570177909529       -3.15773415884264        0.83092268085667
H           -1.15758483012781       -3.13438211702264       -0.95531679800505
H           -2.56711579758389       -2.50717167584940       -0.06763540473112
H            1.35119409992517       -2.88526900659462        0.00619054461751
25
 energy: 47.386157201494 xtb: 6.6.1 (8d0f1dd)
C            3.20800538503828        1.22316853687443        0.09638435862415
N            2.30750424660411        0.09438192968330        0.04896053290216
C            2.62838353006502       -1.21744223509021        0.16085359768239
N            1.43568568124272       -1.87277145000358        0.03523598544138
C            0.38485223762678       -1.00581781153148       -0.02096897516396
C            0.91818185818426        0.26565532142690       -0.00624997239885
C            0.06844228842170        1.43703289537249       -0.01616395774975
O            0.41045668542005        2.60056942030716       -0.00591213442954
N           -1.29929810834552        1.08371981654281       -0.03066591324532
C           -2.28361276606879        2.16060462767983       -0.05274172191722
C           -1.84654380565950       -0.18135724713053       -0.04970100743012
O           -3.04192558330171       -0.36908936610486       -0.07495536171286
N           -0.95212740269297       -1.25287141711796       -0.03935476370904
C           -1.48316406713955       -2.59973499231715       -0.05772215640644
H            3.67411859641114        1.30340962749522        1.08130149075793
H            3.99716975361724        1.12039686819747       -0.64777228466402
H            2.63832340593871        2.13042933881959       -0.10462860840716
H            4.38861786853513       -2.52892488145458       -0.11742206394018
H           -1.74537704243460        3.10472622787717       -0.02938581345616
H           -2.89486775976012        2.09439979795538       -0.95404391284923
H           -2.94849093004075        2.07982905421772        0.80720893778381
H           -1.17630799345109       -3.15410391667802        0.83145598315440
H           -1.15753557064880       -3.12879972635713       -0.95504254415281
H           -2.56966146676626       -2.50605731787865       -0.06719370612988
H            1.35439313582944       -2.87623103658978        0.01816251688210
25
 energy: 48.415841726460 xtb: 6.6.1 (8d0f1dd)
C            3.19979990895644        1.22967129194621        0.09628893763008
N            2.29236276708713        0.10690863073628        0.04986990038267
C            2.61488508740315       -1.20139267302413        0.15526687387411
N            1.42728908860861       -1.86285733280243        0.03570538922074
C            0.37450103366083       -0.99924911401909       -0.02140272169699
C            0.90541404588348        0.27273649572786       -0.00577484373627
C            0.05707241959148        1.44196809585162       -0.01319499977467
O            0.39917067073158        2.60574923212227       -0.00314928367114
N           -1.30809914434431        1.08753302994015       -0.02902561024710
C           -2.29203016351537        2.16368537234025       -0.05183162522588
C           -1.85441295667384       -0.17908573420856       -0.04951488386325
O           -3.04974037444425       -0.36604878574085       -0.07557484678234
N           -0.96110292689699       -1.24934230088761       -0.03905627674409
C           -1.48708992844374       -2.59703717745200       -0.05813626145603
H            3.66453114267653        1.30954329238596        1.08167865096124
H            3.98813604885232        1.11413156210482       -0.64576880189175
H            2.64110856679337        2.14248315866995       -0.10873981254870
H            4.49831131833289       -2.61184534242690       -0.12745260524192
H           -1.75409571062481        3.10803917404200       -0.02956162540078
H           -2.90146549995930        2.09682242641265       -0.95407157913942
H           -2.95703613166824        2.08318959456457        0.80810386438859
H           -1.17904477837532       -3.15017702263374        0.83143816230206
H           -1.15861459867140       -3.12435458760688       -0.95545322303315
H           -2.57409277592124       -2.51054438404205       -0.06971462772293
H            1.35716889606226       -2.86718024696923        0.02522018463204
25
 energy: 49.466384045382 xtb: 6.6.1 (8d0f1dd)
C            3.19089500990365        1.23324149834835        0.09885337360027
N            2.27560809262789        0.11914925192707        0.05176421126477
C            2.59977949964006       -1.18506684975604        0.14280875047602
N            1.41782636662782       -1.85312608123748        0.03370549960654
C            0.36337746461301       -0.99275051261239       -0.02207756794618
C            0.89147079625221        0.28004861966331       -0.00631215873972
C            0.04491167121684        1.44639969756070       -0.01649380421666
O            0.38668929066183        2.61054066340970       -0.00605945107503
N           -1.31750536252438        1.09041583187235       -0.03038268811659
C           -2.30024690757590        2.16670692408923       -0.05149386619132
C           -1.86281067623332       -0.17776346469655       -0.05123592798016
O           -3.05823947221058       -0.36400675103383       -0.07503432243054
N           -0.97065747598353       -1.24699532002249       -0.04024985111916
C           -1.49241514988143       -2.59634053958800       -0.05932272647657
H            3.65404757195835        1.31009831755952        1.08434564832830
H            3.97636794570394        1.10618695187138       -0.64437084908074
H            2.64105757551266        2.15089362867073       -0.10541485997690
H            4.61590585217423       -2.69614790579738       -0.13224568695288
H           -1.76159195532114        3.11089733304297       -0.02918010885021
H           -2.90743704477058        2.09840744717283       -0.95539903565412
H           -2.96344999394006        2.08592720147381        0.81013500864279
H           -1.18157869394844       -3.14603732433237        0.83115250763985
H           -1.16268628597196       -3.12284305911823       -0.95633640102857
H           -2.57948951277814       -2.51531090647283       -0.06973413022101
H            1.35887248480503       -2.85794879061725        0.02562737790681
25
 energy: 50.468809969087 xtb: 6.6.1 (8d0f1dd)
C            3.18346965980863        1.23565120452596        0.10184462991331
N            2.26024938603176        0.13058547196220        0.05191675718233
C            2.58861755770452       -1.16869602229173        0.12643022220000
N            1.40951953215411       -1.84299905122233        0.02805895501696
C            0.35333058620933       -0.98611592237790       -0.02327959764055
C            0.87909004898617        0.28709727383762       -0.00658981826021
C            0.03403973255546        1.44950638144811       -0.01605270302196
O            0.37869402587064        2.61271124199119       -0.00335831569059
N           -1.32629854664849        1.09227059130733       -0.03289176666556
C           -2.30621912955531        2.16912562020948       -0.05453968004737
C           -1.87145060967009       -0.17619781838828       -0.05165744271594
O           -3.06678305825973       -0.36234159931490       -0.07422755189119
N           -0.97939445656975       -1.24448013972499       -0.04110460366779
C           -1.49590799550919       -2.59604339212273       -0.06044813614772
H            3.64499420159442        1.30690214551305        1.08664725401691
H            3.96653535467935        1.09956539983058       -0.64280149945203
H            2.64259746023854        2.15863748530702       -0.09873066803960
H            4.73539844714187       -2.77980380225955       -0.13495742442102
H           -1.76860168754880        3.11360414115093       -0.02816691460157
H           -2.91270826294533        2.10250407762078       -0.95796311705168
H           -2.96855583090509        2.08684687176500        0.80662260939285
H           -1.18153512956209       -3.14365677460734        0.82948764052726
H           -1.16446536812999       -3.11941894171033       -0.95830806429120
H           -2.58238841701861       -2.52104068304636       -0.06872412613357
H            1.35724211045672       -2.84753619386518        0.02191911329007
25
 energy: 51.260937734562 xtb: 6.6.1 (8d0f1dd)
C            3.17897011498056        1.23947926363321        0.10065965505380
N            2.24820356744504        0.14173699267398        0.05434900348457
C            2.58674881001814       -1.15211111121658        0.10486624650269
N            1.40551591956256       -1.83530913619553        0.02373253258110
C            0.34700547435562       -0.98097592805296       -0.02020800391759
C            0.86891739791328        0.29382060110941        0.00127333908108
C            0.02435619720573        1.45377833779085       -0.01021201749658
O            0.36685294375403        2.61874783138479       -0.00224785066589
N           -1.33476469366560        1.09442463499038       -0.03261797169192
C           -2.31334189616665        2.17266710167187       -0.05249933684778
C           -1.87797595213494       -0.17469991250132       -0.05123932543405
O           -3.07330099193913       -0.36112891161301       -0.07402924221726
N           -0.98562493886076       -1.24271992036691       -0.04097576076865
C           -1.49777704560104       -2.59668074257204       -0.05876021700457
H            3.64740333990783        1.30058870605336        1.08414979100920
H            3.95789109113075        1.08976582206046       -0.64625770016052
H            2.64769542163884        2.16826038316090       -0.10131136071584
H            4.85542349740393       -2.85981388278109       -0.12115532734691
H           -1.77523870604134        3.11676285369229       -0.02798515078257
H           -2.91935245332224        2.10769094832310       -0.95615825624885
H           -2.97337477303361        2.09339133021244        0.81093239995209
H           -1.18057228824969       -3.14159405599314        0.83156713355951
H           -1.16146743492031       -3.12054239238391       -0.95471510062204
H           -2.58469112902956       -2.52779774756706       -0.06912301903573
H            1.35611812269161       -2.84024606477189        0.01372794500399
25
 energy: 51.863006968963 xtb: 6.6.1 (8d0f1dd)
C            3.17359830347920        1.24205725311901        0.09739881973532
N            2.24047785110640        0.14664260846934        0.05597021969928
C            2.58459422105236       -1.14609897673789        0.07106407759010
N            1.40031837233381       -1.83347106587214        0.01790303570772
C            0.34235491898864       -0.97887204361689       -0.00996184304558
C            0.86237253705468        0.29663616096516        0.01299340898018
C            0.01778132819977        1.45556954250201       -0.00525685244354
O            0.36621645832579        2.61941389124583       -0.00092193411595
N           -1.33997892193949        1.09761065258665       -0.03087993945829
C           -2.31820661738351        2.17608766086216       -0.05386147469329
C           -1.88112663510908       -0.17218849244342       -0.04921178022539
O           -3.07702160164600       -0.35709176153131       -0.07467010905539
N           -0.99105613963069       -1.24106215303236       -0.03657676000454
C           -1.50083901408918       -2.59622425834045       -0.05925396737861
H            3.64634575419399        1.29604071983101        1.07983082041886
H            3.94928701013576        1.08892165336195       -0.65243686915459
H            2.64382272392982        2.17283323661564       -0.09869564033508
H            4.97415461994323       -2.93573095941221       -0.08141680946626
H           -1.77736012739610        3.11930639922123       -0.02930848203866
H           -2.92306420671283        2.10958038882147       -0.95796619114632
H           -2.97900664230737        2.09572745001577        0.80884214786262
H           -1.17985326756669       -3.14069771073648        0.83064896222925
H           -1.15898747320837       -3.11830542985246       -0.95466133093667
H           -2.58801897177138       -2.53310194740791       -0.07045649254814
H            1.35288694064519       -2.83895699396978        0.00200313875992
25
 energy: 52.198087371897 xtb: 6.6.1 (8d0f1dd)
C            3.17218750435785        1.24134098100486        0.09101263591508
N            2.23767423873189        0.14683077875399        0.04233926183467
C            2.58230338922835       -1.14715686443163        0.03406323089625
N            1.39867938673163       -1.83651974407924        0.00682876990687
C            0.34144164143842       -0.98156900344288       -0.00222494709324
C            0.86084141284922        0.29488710514856        0.02153208102461
C            0.01823225551499        1.45616707844089       -0.00140522356370
O            0.37228843816961        2.61801448033997       -0.00136267602795
N           -1.33935931330208        1.10022718743127       -0.03028567472497
C           -2.31856350307663        2.17808934059739       -0.05452479813267
C           -1.88028195235704       -0.17114288954114       -0.04841491975049
O           -3.07577789777990       -0.35544393200855       -0.07725031648505
N           -0.99147541563331       -1.24130409620177       -0.03269313256004
C           -1.50197225220747       -2.59575996327375       -0.05793248816607
H            3.63806633829902        1.29355978475318        1.07639372113318
H            3.95311132585628        1.08793775671483       -0.65254531860075
H            2.64653538716875        2.17427914657878       -0.10456652345780
H            5.05327056556055       -2.96730815050825       -0.00207299090218
H           -1.78023624878110        3.12293653398384       -0.03116733176321
H           -2.92293347688573        2.10912254807951       -0.95872171776583
H           -2.97957028250451        2.09651366214498        0.80790738838142
H           -1.18111497584326       -3.14128670260318        0.83117758403132
H           -1.15942275814201       -3.11669902928883       -0.95385050594852
H           -2.58909290427407       -2.53378056113019       -0.07070058978603
H            1.35738340185301       -2.84290665871858       -0.00450160620031
