25
 energy: 0.000000000000 xtb: 6.6.1 (8d0f1dd)
C            3.23720132972391        1.16630909158653        0.08434468864950
N            2.29877796055224        0.07527476373246        0.03981602671198
C            2.58028186251803       -1.21425391179017        0.03006175752192
N            1.43813944744728       -1.93419254010258        0.00098261751768
C            0.39035684826767       -1.05887462812143       -0.00790371763344
C            0.93510047688824        0.21347817468824        0.01709077332874
C            0.09450143016486        1.40504290868848       -0.00410946993748
O            0.49712746915594        2.54126690785742       -0.00342325656480
N           -1.25076628431515        1.06271869620815       -0.03085477937476
C           -2.21907191394203        2.15522079838987       -0.05001256521996
C           -1.81739470187490       -0.20012724136556       -0.04692818139228
O           -2.99983858926755       -0.37846413507442       -0.07008877579474
N           -0.92618577614240       -1.30210203518959       -0.03682761236648
C           -1.46982251276835       -2.64643077634382       -0.06029819901142
H            3.71247229913541        1.21471443890471        1.06488839270555
H            4.00791460421487        1.03430799217987       -0.67357688121503
H            2.69909982127087        2.09770098766290       -0.09130154035862
H            3.56654087521359       -1.63682977417947        0.04233139674524
H           -1.67107945562430        3.09322822573871       -0.02552706696334
H           -2.82428927394145        2.09428605349656       -0.95318074103337
H           -2.87644002486466        2.07745706351925        0.81450059976605
H           -1.17061985538665       -3.19584861009707        0.83242224714061
H           -1.14560246782873       -3.17511580834413       -0.95688266944647
H           -2.55549768731684       -2.55659960601237       -0.07459039105944
H            1.38130842369251       -2.94313824728853       -0.01389874052104
25
 energy: -1.555641743538 xtb: 6.6.1 (8d0f1dd)
C            3.23738443142511        1.18488223179247        0.08781776321874
N            2.33257756769995        0.07719816416689        0.03903593546829
C            2.65103081994442       -1.26787017931908        0.02916148631798
N            1.44454800028406       -1.93716312778117        0.00282444168238
C            0.40701358956604       -1.04970710474878       -0.00592054908735
C            0.94395295684356        0.22406380317028        0.01720591321649
C            0.09547305248796        1.40110695813702       -0.00320742836145
O            0.48086783492391        2.57064600893504       -0.00285950803787
N           -1.27062191651240        1.06063320288225       -0.03037472930130
C           -2.24292820754718        2.15271950088062       -0.05124332234978
C           -1.82820451561807       -0.19212548590477       -0.04695028700840
O           -3.02472912651817       -0.37803410395309       -0.07205128329039
N           -0.93089863172343       -1.28904463244960       -0.03520159059318
C           -1.47562570922989       -2.62920131853995       -0.05936798220570
H            3.70447683339613        1.24327504774178        1.07312457522370
H            4.00650763108372        1.05839194581357       -0.67218927043198
H            2.68069523324066        2.10636751844042       -0.09292787670479
H            3.67644154010911       -1.79921176301028        0.02880071431650
H           -1.69720346646681        3.09341869275133       -0.02728518553287
H           -2.85153136939765        2.09604181876574       -0.95415019802579
H           -2.90531599157986        2.08078189090178        0.81170618061689
H           -1.17237829047701       -3.18057419156593        0.83223874134099
H           -1.14817845577045       -3.15848696788431       -0.95591125216695
H           -2.56210381661054       -2.54243718653044       -0.07327027578587
H            1.36096431141931       -2.93664193394774       -0.01197110032368
25
 energy: 10.915127528124 xtb: 6.6.1 (8d0f1dd)
C            3.23396711855242        1.20103867970306        0.09128324130411
N            2.36550064165485        0.06669555406453        0.03577512342144
C            2.72084601368778       -1.32202955830076        0.02867448621683
N            1.45165232829760       -1.93335753138937        0.00448169058105
C            0.42442565609365       -1.04091076585012       -0.00373854320284
C            0.95657594667333        0.23252038356825        0.01723045426766
C            0.10029450633710        1.39421679792832       -0.00185835976315
O            0.45112629718754        2.58269075008540       -0.00191774184858
N           -1.28789477147026        1.06332598050300       -0.02922886711519
C           -2.26682432554110        2.15334307435029       -0.05254774587323
C           -1.82983680199799       -0.18244483913008       -0.04645984219195
O           -3.02991769793507       -0.37849398402406       -0.07415742087176
N           -0.93051647731792       -1.27223056140566       -0.03255715961955
C           -1.47965345142156       -2.60828148863867       -0.05797847610542
H            3.69235623082815        1.28464438579966        1.08062179375212
H            4.00966606713246        1.09707833712404       -0.66549319936358
H            2.65553464926282        2.11096290893970       -0.09623236806328
H            3.77772820458598       -1.98653989286821        0.01067709174637
H           -1.73132393744093        3.10042009731407       -0.02941215050150
H           -2.88008618220983        2.09498402521218       -0.95413798539168
H           -2.93586708893610        2.08193719868812        0.80730664049884
H           -1.17642019796187       -3.16267775355446        0.83250100432007
H           -1.15373199078915       -3.13838712490914       -0.95540854705789
H           -2.56687799064331       -2.52165208598070       -0.07103340504817
H            1.34149155834385       -2.92782379848538       -0.00935580189616
25
 energy: 22.567679466311 xtb: 6.6.1 (8d0f1dd)
C            3.22745344157728        1.20988520627678        0.09235967046132
N            2.37852096390716        0.05813439126693        0.03076514163018
C            2.75322121926727       -1.35092636073086        0.02977283416073
N            1.45827047233096       -1.93388196081411        0.00394466775858
C            0.43333235520018       -1.04062445121355       -0.00376665768138
C            0.96276258839145        0.23539971567483        0.01585342018789
C            0.10592344251129        1.39520734742508       -0.00165648072008
O            0.43573052980355        2.58663092043499       -0.00106345115844
N           -1.29370299325557        1.07011911357471       -0.02815884919578
C           -2.27856373799578        2.15596987346074       -0.05268473587288
C           -1.82775986013696       -0.17719085386072       -0.04604838124586
O           -3.02733535123180       -0.37916600216028       -0.07483030373158
N           -0.92706936248423       -1.26402454043884       -0.03086404968398
C           -1.48229259092429       -2.59708679893760       -0.05699060125043
H            3.67748381895866        1.31071563628692        1.08475872045760
H            4.01196013016419        1.12499598528570       -0.65825397786431
H            2.63549415959522        2.11096967803928       -0.10105373223723
H            3.84202792124261       -2.09530413443643        0.00227831985208
H           -1.75316834473215        3.10810163552308       -0.03013759408648
H           -2.89363043896209        2.09227824538103       -0.95358955158525
H           -2.95029280151188        2.08049365829331        0.80562521829028
H           -1.18117324096665       -3.15241528622341        0.83318057051041
H           -1.16038632371953       -3.12629795604100       -0.95602647452217
H           -2.56963857683243       -2.50533055647511       -0.06884411403985
H            1.33504688477601       -2.92762371684745       -0.00753569623878
25
 energy: 29.205263146597 xtb: 6.6.1 (8d0f1dd)
C            3.22339352806139        1.21339212714391        0.09238067045889
N            2.37780150212568        0.05882451937414        0.02754645015451
C            2.75929745576922       -1.35639375588124        0.03341047762924
N            1.46096459565008       -1.93274665260777        0.00378858046678
C            0.43381906532846       -1.04127592846938       -0.00387776249386
C            0.96148183595676        0.23745794990949        0.01537336503153
C            0.10732492612842        1.39928185288438       -0.00201105601645
O            0.42868513714525        2.58884835610615       -0.00091776934675
N           -1.29580595018511        1.07407096379384       -0.02767167936047
C           -2.28190192979731        2.15792420917860       -0.05253285028783
C           -1.82840104239293       -0.17574402016798       -0.04598908940281
O           -3.02710448398845       -0.37898929671141       -0.07527394221960
N           -0.92639148309315       -1.26181491203978       -0.03005895746331
C           -1.48353099767594       -2.59502500948476       -0.05683149904177
H            3.66979409392768        1.31572474111972        1.08570900116033
H            4.01065190386605        1.13145673054413       -0.65497934218636
H            2.63106901554353        2.11261415434021       -0.10366525421986
H            3.88225484272846       -2.13968589945271       -0.00174339596347
H           -1.75893174837115        3.11073626303075       -0.03007577436002
H           -2.89673902122314        2.09236402430952       -0.95360416901140
H           -2.95351930096647        2.08078366791949        0.80584951739649
H           -1.18296255772723       -3.15030764370529        0.83302978471575
H           -1.16276958218541       -3.12337276802484       -0.95631316561609
H           -2.57101154944752       -2.50252226275780       -0.06832697035323
H            1.33474604979530       -2.92657262160737       -0.00618125747563
25
 energy: 40.598023861616 xtb: 6.6.1 (8d0f1dd)
C            3.21926042915612        1.21749453079652        0.09235390911893
N            2.36986838430314        0.06610738846570        0.02321040609028
C            2.75545088564247       -1.35336336277053        0.04614345718614
N            1.46202691097218       -1.92839119929950        0.00404721832713
C            0.42957973206168       -1.04117706425705       -0.00447902060614
C            0.95509607338475        0.24134212300587        0.01489051950474
C            0.10694485117251        1.40711808963430       -0.00347650374616
O            0.41915147580688        2.59307251218624       -0.00120158188926
N           -1.29925733106143        1.07800473109002       -0.02725914706494
C           -2.28549618221121        2.15984441752457       -0.05222011458233
C           -1.83226142109878       -0.17495425638680       -0.04621926244277
O           -3.02946586832605       -0.37812813024474       -0.07586283401450
N           -0.92797607303978       -1.25989577685857       -0.02950716033171
C           -1.48551243435634       -2.59479857654857       -0.05703575865373
H            3.66316505873968        1.31622319763266        1.08626531137775
H            4.00810709403771        1.13240455288082       -0.65205700945414
H            2.63184806902470        2.11756470791230       -0.10611973598122
H            3.95830957507470       -2.20120937247172       -0.01075722300746
H           -1.76338449293757        3.11246815251388       -0.02971685453961
H           -2.89975268697767        2.09382101391915       -0.95355423518366
H           -2.95649825382774        2.08215146628207        0.80649964969314
H           -1.18424074387242       -3.14905746121158        0.83256093773727
H           -1.16435579222748       -3.12148533918860       -0.95673045843431
H           -2.57314402232198       -2.50339775169855       -0.06836081453243
H            1.33475106785439       -2.92272980416388       -0.00437978237645
25
 energy: 56.299108988063 xtb: 6.6.1 (8d0f1dd)
C            3.21120062524436        1.22713284053937        0.09216562475915
N            2.34423965205906        0.09023949809777        0.02151680083812
C            2.72767948270371       -1.33127428649945        0.11718294086309
N            1.45826484391626       -1.91432689432092        0.00904732136684
C            0.41377925314675       -1.03725027705524       -0.00893592313226
C            0.93558882709017        0.25187990674576        0.01154747933705
C            0.10215238253291        1.42511229564403       -0.01331772961637
O            0.39956374019446        2.60401652116710       -0.00406500981694
N           -1.30882795240819        1.08404933525304       -0.02773367928959
C           -2.29333532279565        2.16323121287854       -0.05062861729743
C           -1.84468928377151       -0.17376284075584       -0.04782292470403
O           -3.03875527328224       -0.37551122403907       -0.07597463259295
N           -0.93588030050006       -1.25595213073746       -0.03257588790123
C           -1.49012608736828       -2.59608960305796       -0.05900391889864
H            3.65359896900408        1.31538585080927        1.08638795119695
H            4.00094698669034        1.12573976989413       -0.64835881590334
H            2.63803289454360        2.13258637656528       -0.11137866078451
H            4.17332849587787       -2.35890764355162       -0.05959940425481
H           -1.77030529244229        3.11477824482409       -0.02797283920932
H           -2.90669149034382        2.09842390298021       -0.95226921827902
H           -2.96228506211109        2.08569345217320        0.80926214029529
H           -1.18500798291077       -3.14665718537847        0.83062662731383
H           -1.16610425919415       -3.11991023947721       -0.95833619285242
H           -2.57785808352344       -2.50926866453212       -0.06966884619527
H            1.33370454262043       -2.91032942942244       -0.00306067304759
25
 energy: 57.506132687890 xtb: 6.6.1 (8d0f1dd)
C            3.19614781879655        1.23854144631330        0.09393516260782
N            2.29426238770990        0.12572684129121        0.02420878168576
C            2.66129422880317       -1.27578800823116        0.20551867497060
N            1.44948537802352       -1.88286864859817        0.01169133177068
C            0.38553381490484       -1.02550494398415       -0.01923046811628
C            0.90548921042509        0.26765119087852        0.00312012809162
C            0.09189027201822        1.45135250824929       -0.02361675985172
O            0.37719008592671        2.61038245049106       -0.00465857965008
N           -1.31896990915961        1.09443995681022       -0.02688869520964
C           -2.30225120359498        2.16756229077187       -0.05038400546341
C           -1.85971458423860       -0.17349370387281       -0.04864488155680
O           -3.04791356181788       -0.37208320646694       -0.07572713594898
N           -0.94788904120166       -1.24901773387609       -0.03579238275328
C           -1.49423478307905       -2.59757223566818       -0.05968664655045
H            3.64259857850605        1.31095651197593        1.08465594647283
H            3.98678983517343        1.11874424635361       -0.64306698802313
H            2.64220450556551        2.15042098406286       -0.11295228740344
H            4.50291295122864       -2.61524509291816       -0.12714997405781
H           -1.77912413027609        3.11804260240075       -0.02797685973818
H           -2.91246359602445        2.10003772276595       -0.95315406741880
H           -2.96884139076369        2.08770079601454        0.81001346657581
H           -1.18428375694417       -3.14310581601669        0.82998800840948
H           -1.16626116800262       -3.11744525118358       -0.95831690703772
H           -2.58151772919112       -2.51477597621596       -0.06977669893005
H            1.33988009218481       -2.88563014260320        0.00092574931970
25
 energy: 54.113852042837 xtb: 6.6.1 (8d0f1dd)
C            3.18369624157883        1.23650861216984        0.10497854208060
N            2.24468281788589        0.14305581098107        0.04504964263201
C            2.56864295447681       -1.18145107232870        0.15364366170303
N            1.43208270113629       -1.84262860992203        0.01660777635648
C            0.35497490828962       -1.00097723162614       -0.02660602638313
C            0.88532613164227        0.27556849850039       -0.00196878353589
C            0.06658154601281        1.45992587733135       -0.01341077035211
O            0.37608586615860        2.60685493894281       -0.00178965264214
N           -1.32171875059007        1.09562634027075       -0.02807056914250
C           -2.30434258721339        2.16850867971714       -0.05541442901659
C           -1.86867643675186       -0.17643277208926       -0.05032266172995
O           -3.05575069890653       -0.36771249446308       -0.07693360033220
N           -0.96553247959651       -1.24446314193082       -0.03528371514168
C           -1.49562519036981       -2.59923116610034       -0.05679122201989
H            3.65013174268155        1.29703589041253        1.08487358542104
H            3.96589939732189        1.10247980470735       -0.64311972587696
H            2.64513491220013        2.15948604456541       -0.09804892275494
H            4.77923257967633       -2.81030580980857       -0.13798551023003
H           -1.77890165660007        3.11935514718412       -0.03247120200380
H           -2.91182433402560        2.09910779219756       -0.95881716205562
H           -2.97006940636851        2.08795884439399        0.80431794788647
H           -1.18125470480219       -3.14266620507402        0.83348718935174
H           -1.16140331815800       -3.11933037260399       -0.95365865448695
H           -2.58177377118180       -2.52139866311872       -0.06829554119481
H            1.35661584047579       -2.85584595356464        0.02306371566241
25
 energy: 53.009440931638 xtb: 6.6.1 (8d0f1dd)
C            3.17598645323991        1.24133005602380        0.09959474200017
N            2.24028806730722        0.14688838531064        0.05472597281308
C            2.57585721074713       -1.15063323351962        0.12588988031348
N            1.42123188858476       -1.83001000133232        0.01364961805790
C            0.34240125036445       -0.98621836928307       -0.02754326583997
C            0.87120727461942        0.28618395038748       -0.00524826865897
C            0.03950498953107        1.45872184621138       -0.01494155384046
O            0.36048620807839        2.62210991035805       -0.00211714284301
N           -1.33727972155520        1.09569768195882       -0.03087131294361
C           -2.31395493819478        2.17490735950082       -0.05218664258249
C           -1.88190076401435       -0.17355059845716       -0.05065085489332
O           -3.07458091077817       -0.36044452299856       -0.07461787447472
N           -0.98639527620593       -1.24108805388458       -0.03789123074177
C           -1.50215409310420       -2.59846783878215       -0.05936992079310
H            3.64511824762678        1.29424984409645        1.07985455345804
H            3.95268061192449        1.08679870539913       -0.65072740728275
H            2.64974535048110        2.17367310603064       -0.10341502464173
H            4.98435897777984       -2.94289758085073       -0.08322359153331
H           -1.77914330629702        3.12186131449739       -0.02929692126974
H           -2.92097255367021        2.10886774879803       -0.95569712063054
H           -2.97586603283278        2.09596746649003        0.81049943420874
H           -1.18075493762224       -3.14135489454390        0.83055737782825
H           -1.16120377182194       -3.11957097284636       -0.95478858685300
H           -2.58911723534670       -2.53428980156283       -0.07028663992159
H            1.35667131613145       -2.83970271825737        0.01513569325899
25
 energy: 52.460212094457 xtb: 6.6.1 (8d0f1dd)
C            3.17112805546585        1.24300168214206        0.09470267338690
N            2.23769410608465        0.14713124681852        0.05344912701515
C            2.57857028183117       -1.13940175302021        0.08105220529793
N            1.40647307224119       -1.83265076849685        0.01388258472656
C            0.33910778016924       -0.98019324695910       -0.01641950402126
C            0.86247274912203        0.29263800401164        0.00243687235995
C            0.02411598581036        1.45451293867231       -0.00421842887078
O            0.37079840928443        2.61890314835469       -0.00010289886122
N           -1.34028277953778        1.09799307454820       -0.02919363892186
C           -2.31762400539264        2.17735600341148       -0.05478822412103
C           -1.88105598750575       -0.17027281181215       -0.04728626303646
O           -3.07678943775610       -0.35582972973378       -0.07550889032721
N           -0.99296623718516       -1.24109209316252       -0.03356289419413
C           -1.50184426979326       -2.59642770037289       -0.05863422665017
H            3.64249966892548        1.29323520188109        1.07636497729435
H            3.94815795466535        1.09127433226747       -0.65498855546667
H            2.64403733881552        2.17610989947563       -0.09872862688403
H            5.05414662494808       -2.98270607590550       -0.04854984760139
H           -1.77988148353961        3.12296199255833       -0.03134273957079
H           -2.92089250981800        2.10786904612749       -0.96007310358802
H           -2.98012023598263        2.09648607069156        0.80668665984864
H           -1.18079099633816       -3.14162196271457        0.83101778856790
H           -1.15810675640912       -3.11725684281169       -0.95425508610171
H           -2.58852608862367       -2.53351922206910       -0.07139320965212
H            1.35189306549096       -2.83947164515806        0.00648716156597
25
 energy: 52.308007686967 xtb: 6.6.1 (8d0f1dd)
C            3.17214241728003        1.24274497430172        0.09188535433007
N            2.23829972358442        0.14808438894187        0.04836619322265
C            2.58383670449468       -1.14157734925043        0.05711385981788
N            1.40040802334864       -1.83632987365075        0.01234496949304
C            0.34135941842148       -0.97958374679204       -0.00946808444965
C            0.85947057225558        0.29662760074129        0.00906923568263
C            0.01617392681166        1.45444933730262       -0.00453883961384
O            0.37139876533927        2.61892300895475       -0.00117072964668
N           -1.34188784166298        1.09938247883423       -0.03089490392491
C           -2.31987684699498        2.17857391681803       -0.05343907690260
C           -1.87967344972936       -0.16999085243027       -0.04897188802572
O           -3.07611222324847       -0.35659391296535       -0.07664303561259
N           -0.99224880745935       -1.24200387400735       -0.03364733424437
C           -1.50145490372052       -2.59565281153202       -0.05871501380312
H            3.64039675748781        1.29411913285957        1.07640983612749
H            3.95212140019554        1.08755325320687       -0.65317632334902
H            2.64724676656090        2.17629114624558       -0.10358797501144
H            5.06048338887693       -2.98138282066601       -0.01999791617684
H           -1.77969198388915        3.12259943494602       -0.03029137252101
H           -2.92454144805769        2.11029465047501       -0.95749977489500
H           -2.98024229911105        2.09723169299360        0.80934685238076
H           -1.18077315202424       -3.14137112523621        0.83079508422547
H           -1.15872412428667       -3.11745314224482       -0.95422640039726
H           -2.58861834614185       -2.53417459055534       -0.07140314151003
H            1.35272186664185       -2.84173212854658       -0.00062566300132
25
 energy: 52.235090695573 xtb: 6.6.1 (8d0f1dd)
C            3.17210667405303        1.24199919584255        0.09075741190303
N            2.23797230578406        0.14760897415513        0.04459508327336
C            2.58398940025656       -1.14362882906807        0.04160211667936
N            1.39820334717002       -1.83787121957064        0.00912623757161
C            0.34267162830530       -0.98089386825265       -0.00425753437364
C            0.85950072984350        0.29633188564270        0.01738343839443
C            0.01528906259703        1.45480490979240       -0.00037866925985
O            0.37388834136855        2.61747134020149        0.00052792631283
N           -1.34024376123040        1.10007755265635       -0.02940545966142
C           -2.31903994333045        2.17843523845751       -0.05511897599817
C           -1.87879626300320       -0.17029519733675       -0.04697430821167
O           -3.07500933411596       -0.35605820155168       -0.07639387986175
N           -0.99098587032088       -1.24243494288362       -0.03206884068887
C           -1.50169619826868       -2.59541908902853       -0.05806585577774
H            3.63960394801621        1.29364374924879        1.07583383491829
H            3.95220342009124        1.08873692651614       -0.65380288683732
H            2.64578269303620        2.17471293292370       -0.10333182661650
H            5.05311702093885       -2.97160038526795       -0.00775420442083
H           -1.77947600229445        3.12268121223732       -0.03215125138820
H           -2.92222812450185        2.10865598939264       -0.95996672552390
H           -2.98059772405058        2.09749127388250        0.80670603086200
H           -1.18123014781531       -3.14195343371442        0.83085116668551
H           -1.15971455145470       -3.11657959545581       -0.95419608967373
H           -2.58898743560343       -2.53344869131437       -0.07049640043446
H            1.35589108950180       -2.84343893876072       -0.00598642567782
25
 energy: 52.195603343316 xtb: 6.6.1 (8d0f1dd)
C            3.17256118338229        1.24142479975740        0.09079861778050
N            2.23786728710236        0.14728799609857        0.04226995271476
C            2.58356539519699       -1.14585698640745        0.03630119258043
N            1.39810651720673       -1.83758736163484        0.00814038991618
C            0.34269924336503       -0.98160491169630       -0.00293786583051
C            0.86017922972550        0.29570445108852        0.02003545081726
C            0.01632529840819        1.45577070192456       -0.00212856832192
O            0.37319250136072        2.61760536002012       -0.00142760256427
N           -1.33966105778055        1.10038769467881       -0.03061362348356
C           -2.31900076820384        2.17827806875448       -0.05422594726545
C           -1.87942851920131       -0.17070464784552       -0.04862358287279
O           -3.07518659800030       -0.35575744559738       -0.07718692873152
N           -0.99068738460211       -1.24196117277290       -0.03280837383093
C           -1.50169104594839       -2.59554106824307       -0.05803563089612
H            3.63843499331530        1.29348967605768        1.07642962532052
H            3.95358753084261        1.08772715093739       -0.65250692596039
H            2.64699423927520        2.17441159646347       -0.10458790611350
H            5.04966580072967       -2.96746870836819       -0.00274045441874
H           -1.78019821062024        3.12286371140131       -0.03084877904483
H           -2.92354867847473        2.10951245319872       -0.95824492717490
H           -2.97964709435720        2.09656409368009        0.80834123785506
H           -1.18117092249475       -3.14138219307657        0.83112004512298
H           -1.15934252719455       -3.11686941556476       -0.95387296188532
H           -2.58896364382841       -2.53371931936940       -0.07089248102408
H            1.35756153576830       -2.84354573474070       -0.00472004049429
25
 energy: 52.190752867753 xtb: 6.6.1 (8d0f1dd)
C            3.17236264162613        1.24139689759088        0.09086319617046
N            2.23771292252678        0.14706128034817        0.04196233574330
C            2.58298797365454       -1.14691754621668        0.03445330995303
N            1.39854639502781       -1.83694252313541        0.00691660132285
C            0.34211571334027       -0.98183154410726       -0.00188249231377
C            0.86062312838102        0.29510569605198        0.02218009785994
C            0.01748453958122        1.45618284128400       -0.00059865268345
O            0.37241778116944        2.61785897591998       -0.00068645976196
N           -1.33941560964298        1.10029301347621       -0.02973762768433
C           -2.31863603055391        2.17816159065320       -0.05495375968713
C           -1.88008599541363       -0.17108446794369       -0.04759139043222
O           -3.07556682075380       -0.35562546247979       -0.07693728191546
N           -0.99102429745236       -1.24156676593833       -0.03219452042949
C           -1.50192118278146       -2.59570881350971       -0.05796041415034
H            3.63832021640308        1.29348722153411        1.07625230627471
H            3.95313555696819        1.08786029457135       -0.65271406723484
H            2.64679199313190        2.17442571060261       -0.10458223923692
H            5.05074552427890       -2.96691259607482       -0.00256852392118
H           -1.78004895211542        3.12286047288734       -0.03180749830423
H           -2.92256346009887        2.10893314480630       -0.95941812663462
H           -2.98003008142778        2.09714076931888        0.80720123429844
H           -1.18111052893747       -3.14174211985769        0.83087764773792
H           -1.15961413585587       -3.11643792289578       -0.95412335884318
H           -2.58910369094085       -2.53377980257745       -0.07056929023524
H            1.35809070485757       -2.84318955556433       -0.00534711369772
25
 energy: 52.198087371897 xtb: 6.6.1 (8d0f1dd)
C            3.17218750435785        1.24134098100486        0.09101263591508
N            2.23767423873189        0.14683077875399        0.04233926183467
C            2.58230338922835       -1.14715686443163        0.03406323089625
N            1.39867938673163       -1.83651974407924        0.00682876990687
C            0.34144164143842       -0.98156900344288       -0.00222494709324
C            0.86084141284922        0.29488710514856        0.02153208102461
C            0.01823225551499        1.45616707844089       -0.00140522356370
O            0.37228843816961        2.61801448033997       -0.00136267602795
N           -1.33935931330208        1.10022718743127       -0.03028567472497
C           -2.31856350307663        2.17808934059739       -0.05452479813267
C           -1.88028195235704       -0.17114288954114       -0.04841491975049
O           -3.07577789777990       -0.35544393200855       -0.07725031648505
N           -0.99147541563331       -1.24130409620177       -0.03269313256004
C           -1.50197225220747       -2.59575996327375       -0.05793248816607
H            3.63806633829902        1.29355978475318        1.07639372113318
H            3.95311132585628        1.08793775671483       -0.65254531860075
H            2.64653538716875        2.17427914657878       -0.10456652345780
H            5.05327056556055       -2.96730815050825       -0.00207299090218
H           -1.78023624878110        3.12293653398384       -0.03116733176321
H           -2.92293347688573        2.10912254807951       -0.95872171776583
H           -2.97957028250451        2.09651366214498        0.80790738838142
H           -1.18111497584326       -3.14128670260318        0.83117758403132
H           -1.15942275814201       -3.11669902928883       -0.95385050594852
H           -2.58909290427407       -2.53378056113019       -0.07070058978603
H            1.35738340185301       -2.84290665871858       -0.00450160620031
