25
 energy: 0.000000000000 xtb: 6.6.1 (8d0f1dd)
C            3.23720163006194        1.16630919979326        0.08434469647475
N            2.29877817382611        0.07527477071623        0.03981603040599
C            2.58028210190900       -1.21425402444508        0.03006176031096
N            1.43813958087363       -1.93419271955128        0.00098261760884
C            0.39035688448383       -1.05887472636071       -0.00790371836672
C            0.93510056364412        0.21347819449412        0.01709077491437
C            0.09450143893243        1.40504303904423       -0.00410947031874
O            0.49712751527797        2.54126714362870       -0.00342325688240
N           -1.25076640035757        1.06271879480407       -0.03085478223738
C           -2.21907211982101        2.15522099834493       -0.05001256985998
C           -1.81739487048744       -0.20012725993278       -0.04692818574614
O           -2.99983886758376       -0.37846417018721       -0.07008878229737
N           -0.92618586207120       -1.30210215599479       -0.03682761578324
C           -1.46982264913417       -2.64643102187190       -0.06029820460571
H            3.71247264356769        1.21471455160235        1.06488849150277
H            4.00791497605742        1.03430808813993       -0.67357694370751
H            2.69910007168542        2.09770118228144       -0.09130154882931
H            3.56654120610678       -1.63682992603973        0.04233140067262
H           -1.67107961066214        3.09322851271934       -0.02552706933167
H           -2.82428953597071        2.09428624779827       -0.95318082946668
H           -2.87644029173232        2.07745725625962        0.81450067533302
H           -1.17061996399332       -3.19584890659852        0.83242232437030
H           -1.14560257411436       -3.17511610292205       -0.95688275822323
H           -2.55549792440841       -2.55659984320617       -0.07459039797972
H            1.38130855184625       -2.94313852034425       -0.01389874181052
25
 energy: -2.185339923559 xtb: 6.6.1 (8d0f1dd)
C            3.28346720338700        1.17008704919633        0.05534887522045
N            2.31108670334002        0.10527033576691        0.01592331146240
C            2.59088077603599       -1.22383344652826        0.02593566880870
N            1.41871416942892       -1.93082417419679        0.00222373553219
C            0.38742701529678       -1.04816141309578       -0.00715247494600
C            0.92472812360039        0.23235790469579        0.01045275703981
C            0.08202280514125        1.39937504637109        0.00138316775247
O            0.47008151746357        2.56743398735517        0.00663636904371
N           -1.28018480932688        1.04937336914162       -0.02724778492102
C           -2.24805637430669        2.14064917871203       -0.04876909993951
C           -1.83845663362101       -0.20400432730825       -0.04641774908797
O           -3.03421159272780       -0.39173294917225       -0.07190090894100
N           -0.94374249338251       -1.29950215539331       -0.03407152977926
C           -1.47980275190135       -2.64393024185792       -0.05734049070654
H            3.77272765883353        1.19636220554324        1.01034659448001
H            4.18940710586637        1.05010479276821       -0.59736870796076
H            2.73668536303428        2.10610912733582       -0.08956517089218
H            3.56697531405781       -1.65033731799849        0.04206467740710
H           -1.69497935588602        3.07681156000287       -0.02159348953858
H           -2.85090206950587        2.08485933527640       -0.95498115894809
H           -2.91014356637731        2.06660163652564        0.81348703956002
H           -1.18174490489011       -3.19409021057177        0.83718445588675
H           -1.14709209529395       -3.17688917134332       -0.95028161547892
H           -2.56581737504630       -2.55820207414757       -0.07791173164468
H            1.35314493471616       -2.93485944490540       -0.00935084326183
25
 energy: 7.809134803966 xtb: 6.6.1 (8d0f1dd)
C            3.35618615513291        1.16309946982059        0.02282649223116
N            2.32927421229094        0.13881919217626       -0.02685862390205
C            2.59232251244359       -1.22411768790843        0.01649373733988
N            1.39497717033164       -1.91233484564337        0.00392840732734
C            0.38300624572411       -1.02638589141604       -0.00708884186926
C            0.91644866936041        0.26293935358797       -0.00556463584882
C            0.06286970740603        1.39462394901861        0.00689630100996
O            0.41559199451047        2.58468684655789        0.02569662154364
N           -1.32054306616158        1.03707837128597       -0.02183382862443
C           -2.29306074591638        2.12258406613393       -0.04693083448259
C           -1.86060454461706       -0.20868410218776       -0.04489145784487
O           -3.05999600692546       -0.41272911168356       -0.07526345082035
N           -0.96113725546541       -1.29083626709663       -0.02847953946886
C           -1.48890681252809       -2.63786608996377       -0.05200865220121
H            3.85484051847152        1.15803829951895        0.96435144940940
H            4.41294792329316        1.05297719294010       -0.50639234194704
H            2.81982434356771        2.11074305353848       -0.09877714296716
H            3.55766569614413       -1.65780110100660        0.04081292523617
H           -1.74105143597527        3.05965365699058       -0.01484042205637
H           -2.89239669455059        2.06817972820783       -0.95684668835557
H           -2.96385894407057        2.04700920786524        0.80964801116539
H           -1.20052197945502       -3.18939266448653        0.84644876638430
H           -1.14752089820789       -3.17832756145353       -0.93897563657978
H           -2.57611929524901       -2.55848971462500       -0.08426248061616
H            1.32197719838197       -2.91443874799913       -0.00105423791542
25
 energy: 14.821043858424 xtb: 6.6.1 (8d0f1dd)
C            3.42419336091851        1.14668365315678        0.00966780935793
N            2.34615686859714        0.15678047974739       -0.05912646167680
C            2.58723660245829       -1.21672603551416        0.00392250492163
N            1.38425566094530       -1.89302388231560        0.00472348835574
C            0.38028766686671       -1.00550141620570       -0.00885295755425
C            0.91727424419620        0.28861614267098       -0.02003085059098
C            0.04543902617171        1.40457940445761        0.01076006297365
O            0.36762552575737        2.60132806926891        0.04273881024793
N           -1.34840257671227        1.03598179610202       -0.01813286300649
C           -2.33379890770654        2.10939881656145       -0.04767608699188
C           -1.87580084136440       -0.21205505636890       -0.04468691475255
O           -3.07349639479268       -0.43034917453476       -0.07983965939397
N           -0.96672912614011       -1.28147390509517       -0.02363276600255
C           -1.49068684864382       -2.63130232022046       -0.04596713899827
H            3.91379402835614        1.10549147313888        0.95673751033712
H            4.53470477303802        1.03850009548060       -0.47576498370113
H            2.91780326376407        2.11317450566054       -0.09618422311261
H            3.54828893008509       -1.65890374011068        0.03791381164039
H           -1.79360343040892        3.05237279535963       -0.00995295772447
H           -2.92835276549160        2.04890480766212       -0.96117471871826
H           -3.01283519043231        2.02434403209200        0.80238062230941
H           -1.21584340041898       -3.18045610022889        0.85843297952153
H           -1.14266510495294       -3.17750890985677       -0.92691547368859
H           -2.57880604632041       -2.55420862805016       -0.09075715910923
H            1.30617535016672       -2.89561830068559        0.00845151150402
25
 energy: 16.342866333105 xtb: 6.6.1 (8d0f1dd)
C            3.45849867193927        1.13379686197957        0.00888732820708
N            2.35456250831161        0.16241947856378       -0.07760625511567
C            2.58201047295276       -1.20900446608835       -0.00718732257418
N            1.38287665764809       -1.88140384109978        0.00462886604921
C            0.37872525305501       -0.99303857082668       -0.01077971150260
C            0.91897903049509        0.30215989934264       -0.02892971031360
C            0.03732951686953        1.41518519441268        0.01134323799182
O            0.34227486472682        2.61028691064457        0.05222987861211
N           -1.35944547898269        1.03824892913194       -0.01713998421774
C           -2.35417780996959        2.10331250830237       -0.04989688231902
C           -1.88233357401358       -0.21347284076905       -0.04455151094159
O           -3.07737350556589       -0.43777413432748       -0.08291938557614
N           -0.96637640611679       -1.27595538391767       -0.02011466256820
C           -1.48866270384237       -2.62755789994522       -0.04110428365023
H            3.93992373932880        1.06040880168117        0.95872371503747
H            4.57209884068559        1.02981196746752       -0.47747801344919
H            2.97329175042070        2.11238428002031       -0.08113903256635
H            3.54257995887661       -1.65527700925761        0.03678636533969
H           -1.82583972902499        3.05227195913615       -0.00826471978397
H           -2.94524845424325        2.03685165473237       -0.96565664205541
H           -3.03766208406185        2.00953877534741        0.79608976246712
H           -1.22357656470480       -3.17283972496966        0.86817977303797
H           -1.13577274437117       -3.17691789323972       -0.91750290600447
H           -2.57692958631711       -2.54981867480376       -0.09460915707843
H            1.30246204384052       -2.88458817934545        0.01504514912167
25
 energy: 15.673163940905 xtb: 6.6.1 (8d0f1dd)
C            3.46602653752615        1.12856331390298        0.01199908487939
N            2.35696245936547        0.16281727987938       -0.08837595164260
C            2.57916217796979       -1.20424596257548       -0.01473653443998
N            1.38431418167304       -1.87670161759324        0.00481110207646
C            0.37797872232047       -0.98820363662272       -0.01185700471804
C            0.91948156443105        0.30668192982931       -0.03383710724791
C            0.03672810178283        1.42070312340524        0.00948370720880
O            0.33391642246462        2.61367813300230        0.05627753104119
N           -1.36032355939813        1.03919871124615       -0.01800593752577
C           -2.35831598728789        2.10142238040880       -0.05181375855324
C           -1.88340659095926       -0.21390781195552       -0.04446545500417
O           -3.07690350156222       -0.43866990177265       -0.08407675847787
N           -0.96494882356687       -1.27418501581540       -0.01763847668532
C           -1.48664185995379       -2.62650559173811       -0.03820418406861
H            3.94638330782268        1.03292733505826        0.95962320574156
H            4.56869959490504        1.03068269006159       -0.48597639671767
H            2.98808150047357        2.11047276700176       -0.06499486151282
H            3.54022922483860       -1.65121524610608        0.03891545150127
H           -1.83560364747169        3.05302406150612       -0.00841173256805
H           -2.94787280976749        2.03299195103151       -0.96847800247646
H           -3.04299272595825        2.00388469648812        0.79278091318588
H           -1.22609160951513       -3.16927193291762        0.87343710865088
H           -1.13067368847493       -3.17701968236457       -0.91205998433008
H           -2.57472034701170       -2.54809831683834       -0.09610834965034
H            1.30274602329034       -2.87999505434972        0.01874628748082
25
 energy: 15.015216787503 xtb: 6.6.1 (8d0f1dd)
C            3.46515633957580        1.12718604614864        0.01467243802863
N            2.35768016975803        0.16282716345778       -0.09982446137760
C            2.57784316643536       -1.20150435980244       -0.02172740241968
N            1.38544544506527       -1.87458797291583        0.00559007693642
C            0.37760885183284       -0.98620509224556       -0.01233315305299
C            0.91923607643085        0.30851052691544       -0.03814453540149
C            0.03853835746641        1.42336566880357        0.00717964889416
O            0.33084765966878        2.61579212264483        0.05849986668405
N           -1.35902863242004        1.03891564515517       -0.01935823751051
C           -2.35757417398989        2.10070363565903       -0.05341595567000
C           -1.88312279144638       -0.21418055970646       -0.04423706298387
O           -3.07604886816346       -0.43829902482834       -0.08437086312666
N           -0.96404745641619       -1.27391115725293       -0.01502808800019
C           -1.48532058655315       -2.62652192455181       -0.03593839543291
H            3.94744961306966        1.01219973820394        0.95856593099099
H            4.55975909126987        1.03671853975712       -0.49182334053004
H            2.98893000543114        2.10981967711094       -0.04938982673508
H            3.53913011557872       -1.64811043949062        0.04327061429610
H           -1.83667156050210        3.05302516336174       -0.00912242649740
H           -2.94648297115302        2.03234723471462       -0.97047952783300
H           -3.04245664213832        2.00211666433386        0.79079629095701
H           -1.22704780307344       -3.16807413713922        0.87678434421330
H           -1.12713552155532       -3.17744466621094       -0.90833470810159
H           -2.57317223759893       -2.54792974583990       -0.09643217424625
H            1.30269902136378       -2.87773014411056        0.02163484406588
25
 energy: 14.763564798997 xtb: 6.6.1 (8d0f1dd)
C            3.46223156686302        1.12761656844186        0.01632254345936
N            2.35780496888206        0.16314389926164       -0.11198358083382
C            2.57768463786358       -1.20039174838745       -0.02866724905480
N            1.38596549326382       -1.87381140933089        0.00676107240871
C            0.37755438956334       -0.98569290417363       -0.01223498956334
C            0.91874974047129        0.30911460215706       -0.04183312637943
C            0.04063207399516        1.42415783750587        0.00536800535641
O            0.33029953505867        2.61681643534394        0.05908255852878
N           -1.35800404726516        1.03829806217211       -0.02056146769765
C           -2.35597288432773        2.10062490608493       -0.05468171664679
C           -1.88265594683026       -0.21428709235738       -0.04381643032873
O           -3.07561399065520       -0.43805125855108       -0.08412360603876
N           -0.96372574042174       -1.27421861344293       -0.01230176408562
C           -1.48468348682507       -2.62687534081856       -0.03408183402952
H            3.94672727747230        0.99658547850800        0.95663334522174
H            4.55423681378362        1.04523793432439       -0.49405835822176
H            2.98522721279321        2.11012479912014       -0.03575984998690
H            3.53873125582711       -1.64619241948454        0.04867425171559
H           -1.83466455541043        3.05268630116294       -0.01012388156875
H           -2.94472085885877        2.03291888579593       -0.97185554369214
H           -3.04076547782805        2.00242830661307        0.78959114039200
H           -1.22731246331045       -3.16832918449912        0.87887703031176
H           -1.12526276133386       -3.17774889288263       -0.90596135067768
H           -2.57238080850055       -2.54838052822649       -0.09582762620191
H            1.30213272366637       -2.87674602216508        0.02359632376054
25
 energy: 14.809823016455 xtb: 6.6.1 (8d0f1dd)
C            3.45971219335655        1.12861337055158        0.01722830893983
N            2.35752506795546        0.16354314707112       -0.12175661648402
C            2.57829446331008       -1.20043259639053       -0.03476649446166
N            1.38617159769943       -1.87385017880350        0.00797357617036
C            0.37777002939928       -0.98610367650871       -0.01159855310309
C            0.91841029791394        0.30884276030951       -0.04395496688423
C            0.04188663708948        1.42380698578102        0.00428788364492
O            0.33127760515789        2.61673532928151        0.05813945805911
N           -1.35777899613532        1.03797952595253       -0.02130093308102
C           -2.35493272047029        2.10099774712254       -0.05546629919654
C           -1.88229184622454       -0.21419184035936       -0.04335850556349
O           -3.07549162943372       -0.43814975619997       -0.08363540724380
N           -0.96368135330440       -1.27459941896699       -0.01003135728349
C           -1.48455996096196       -2.62714762156657       -0.03284994364587
H            3.94545034195187        0.98711830920902        0.95498834291045
H            4.55274654927488        1.05285669730988       -0.49385189780281
H            2.98110389786095        2.11062313078237       -0.02648003519504
H            3.53879672803542       -1.64517442231399        0.05395891488094
H           -1.83232206072425        3.05246829918955       -0.01123000676235
H           -2.94385289840772        2.03371098077528       -0.97251403745492
H           -3.03949706970310        2.00378116865882        0.78909591104123
H           -1.22704450094196       -3.16927245873977        0.87972835324209
H           -1.12501711665414       -3.17763490742148       -0.90503580935275
H           -2.57222421491956       -2.54881595767569       -0.09460367831216
H            1.30176362681198       -2.87667601487610        0.02406768908564
25
 energy: 14.927513718890 xtb: 6.6.1 (8d0f1dd)
C            3.45876277972721        1.12924631286178        0.01762162930461
N            2.35704791046273        0.16384767208912       -0.12648241397674
C            2.57897845690784       -1.20082484423041       -0.03905274208062
N            1.38629214686045       -1.87411135598359        0.00879545170047
C            0.37804505576133       -0.98666131619741       -0.01075592588270
C            0.91836622626928        0.30831094855182       -0.04417719044449
C            0.04193880489469        1.42322673127272        0.00387316696412
O            0.33241525657451        2.61620103783634        0.05675356902038
N           -1.35808865674996        1.03808885041500       -0.02148986219385
C           -2.35482932484198        2.10140154959079       -0.05574628591773
C           -1.88214161341494       -0.21401980830816       -0.04307922837264
O           -3.07547450011384       -0.43840814599585       -0.08334785975009
N           -0.96366710756751       -1.27471994274161       -0.00877563139794
C           -1.48464869553729       -2.62715967310301       -0.03233941830768
H            3.94468969652659        0.98340982582965        0.95433964529753
H            4.55343014338358        1.05649852758234       -0.49304493588231
H            2.97925190504592        2.11095758531250       -0.02278657495175
H            3.53896952353105       -1.64458848297998        0.05793936528389
H           -1.83133675684520        3.05251637807427       -0.01205664786062
H           -2.94401805558963        2.03403773009616       -0.97258835218597
H           -3.03917298920437        2.00491458142254        0.78909421326612
H           -1.22654777897048       -3.17003416231314        0.87969968246812
H           -1.12562614069837       -3.17720435599253       -0.90514542473214
H           -2.57236905589476       -2.54892136208276       -0.09346880727334
H            1.30194743741942       -2.87697567883453        0.02325447405273
25
 energy: 15.018642842909 xtb: 6.6.1 (8d0f1dd)
C            3.45848204779586        1.12960792401343        0.01793403729132
N            2.35634142213320        0.16418689580410       -0.12964584585668
C            2.57964582166928       -1.20121791804690       -0.04436207857740
N            1.38645099403205       -1.87435559237708        0.00956069884861
C            0.37833757132005       -0.98715438170678       -0.00956944089111
C            0.91848524326895        0.30773509776792       -0.04341853256780
C            0.04136320383979        1.42266229710227        0.00361949664830
O            0.33348057933016        2.61556472738710        0.05521257444321
N           -1.35850719197428        1.03840937311585       -0.02143432369632
C           -2.35509769246857        2.10176094183385       -0.05589521726067
C           -1.88204846333734       -0.21382617684185       -0.04286894456294
O           -3.07541694690448       -0.43867483542240       -0.08330131390316
N           -0.96358062320281       -1.27465045732620       -0.00769496778202
C           -1.48473655578208       -2.62701950554338       -0.03198507975809
H            3.94423822332116        0.98077839368412        0.95406191863328
H            4.55439278600559        1.05850906585058       -0.49250503886068
H            2.97863816262350        2.11126154316128       -0.02066414523218
H            3.53906174513364       -1.64373595666379        0.06295788268798
H           -1.83111636307122        3.05271202685686       -0.01285337434772
H           -2.94457979475190        2.03403120460030       -0.97250818304906
H           -3.03922758354781        2.00582518908982        0.78920552074707
H           -1.22590521401778       -3.17065189496005        0.87944230762602
H           -1.12645061084169       -3.17654806183624       -0.90554057268477
H           -2.57254804221451       -2.54883730235047       -0.09229590563237
H            1.30251194957750       -2.87734399502029        0.02158242388448
25
 energy: 15.065755530468 xtb: 6.6.1 (8d0f1dd)
C            3.45873011653992        1.12966026523094        0.01831249348903
N            2.35492048283169        0.16486704056048       -0.13347774406588
C            2.58053204758068       -1.20172059310385       -0.05676917823824
N            1.38670646764896       -1.87456723221671        0.01060833496919
C            0.37875859199002       -0.98757132267337       -0.00703185788304
C            0.91887355674721        0.30701403108777       -0.04106207395397
C            0.03976772789647        1.42198176271266        0.00344492051660
O            0.33469223957732        2.61464135643383        0.05301565822741
N           -1.35896849970205        1.03906408143023       -0.02098057802953
C           -2.35574776218276        2.10211578331444       -0.05606937472846
C           -1.88191076653150       -0.21356596545341       -0.04258945221634
O           -3.07519944272688       -0.43891462739146       -0.08379759647933
N           -0.96330169366936       -1.27426246518670       -0.00584454659180
C           -1.48472978539711       -2.62663150336436       -0.03137667513899
H            3.94402199481130        0.97649383953920        0.95372661030736
H            4.55542261605141        1.05992351789873       -0.49255779060899
H            2.97926920230432        2.11161377641867       -0.01819861016286
H            3.53870346049693       -1.64151843034533        0.07461203427151
H           -1.83175258050098        3.05315031972163       -0.01397055310775
H           -2.94557139276567        2.03348924228844       -0.97240255592905
H           -3.03966412483078        2.00665641286257        0.78930142898049
H           -1.22486990501465       -3.17133807187952        0.87911376949632
H           -1.12750176261803       -3.17525233392692       -0.90608536624109
H           -2.57268328037642       -2.54848860998576       -0.09057699533646
H            1.30371715977622       -2.87781167180011        0.01768959460117
25
 energy: 14.985038324672 xtb: 6.6.1 (8d0f1dd)
C            3.45905089723445        1.12927181419864        0.01818084687953
N            2.35448913399949        0.16509345861018       -0.13359016957911
C            2.58059484323533       -1.20186170661858       -0.06378541932632
N            1.38669141233347       -1.87450373005751        0.01047729672718
C            0.37881779388404       -0.98731998884660       -0.00596854425798
C            0.91910162895975        0.30705568029416       -0.03988944800481
C            0.03913111998052        1.42202782919467        0.00370823352850
O            0.33448453760828        2.61456503774383        0.05302771372537
N           -1.35870543604420        1.03919922647299       -0.02057324621542
C           -2.35581462859855        2.10198859943705       -0.05606876044564
C           -1.88182389832915       -0.21360906856838       -0.04253842924434
O           -3.07503612915682       -0.43873280333414       -0.08437157869514
N           -0.96311346361388       -1.27402902048200       -0.00522103374318
C           -1.48457065017560       -2.62648782866557       -0.03112329436553
H            3.94422870791593        0.97545403133194        0.95354220772934
H            4.55497570611152        1.05920479101536       -0.49327747446274
H            2.98022160069173        2.11150466524517       -0.01812243350788
H            3.53785507603962       -1.64016184803576        0.08107154144576
H           -1.83235334180784        3.05326745205931       -0.01397120911143
H           -2.94549473626287        2.03304640633803       -0.97248484514647
H           -3.03986598861303        2.00630007333504        0.78917159327228
H           -1.22480308438272       -3.17125109680676        0.87928581533969
H           -1.12726060182810       -3.17490652083525       -0.90590274921659
H           -2.57251843780191       -2.54830562478048       -0.09048782313879
H            1.30393260655679       -2.87778122607327        0.01594510596104
25
 energy: 14.647567378487 xtb: 6.6.1 (8d0f1dd)
C            3.45957858849174        1.12794666778607        0.01737265127983
N            2.35349490695246        0.16562573387136       -0.13392633448391
C            2.58082545673788       -1.20273119936793       -0.09016407175845
N            1.38645626019525       -1.87431425432941        0.00901397697701
C            0.37901841840353       -0.98629190459371       -0.00274461995968
C            0.91983488234108        0.30735151890702       -0.03694339954447
C            0.03771453862544        1.42238327453936        0.00486241013439
O            0.33345060505716        2.61458641932582        0.05397266999657
N           -1.35741666606165        1.03937380496567       -0.01918251383222
C           -2.35557763593544        2.10146437195614       -0.05601476197456
C           -1.88141291360331       -0.21390554967738       -0.04221192510129
O           -3.07446184708384       -0.43795445835713       -0.08612545271685
N           -0.96243083755043       -1.27342421616008       -0.00310419730992
C           -1.48392672072892       -2.62617940745999       -0.03012486213132
H            3.94462604218348        0.97257558324000        0.95280968845430
H            4.55284701805636        1.05723515868535       -0.49559799652494
H            2.98263137484508        2.11104613144345       -0.01793567225369
H            3.53431865940860       -1.63548484505585        0.10550198352354
H           -1.83377591756965        3.05347046541081       -0.01353865880795
H           -2.94450437424221        2.03177844399092       -0.97288278932472
H           -3.04023346221740        2.00488690743314        0.78860871203917
H           -1.22505388174219       -3.17088945394345        0.88032578366385
H           -1.12577793038318       -3.17414859646864       -0.90470695053009
H           -2.57177375667033       -2.54781416258915       -0.09070319634242
H            1.30376386042671       -2.87755783138034        0.01047342267518
25
 energy: 14.623780208440 xtb: 6.6.1 (8d0f1dd)
C            3.45931287092741        1.12793284223109        0.01699969001554
N            2.35403844857615        0.16517126673622       -0.13137652338573
C            2.58081202071694       -1.20305796825968       -0.08768361126658
N            1.38629935142069       -1.87445129224284        0.00825967909265
C            0.37901155572849       -0.98627441572508       -0.00340041308708
C            0.91982651417695        0.30736009168582       -0.03746206229495
C            0.03837288119970        1.42249846931465        0.00526375878029
O            0.33325827106762        2.61469762223315        0.05485916241631
N           -1.35715670576414        1.03915864763455       -0.01922060298018
C           -2.35525602986954        2.10139588912160       -0.05586813791228
C           -1.88132450015588       -0.21401205200941       -0.04222118679553
O           -3.07443185596675       -0.43786495027456       -0.08588549296096
N           -0.96237476582845       -1.27359339526840       -0.00381600983267
C           -1.48389148696679       -2.62630691130840       -0.03042312160196
H            3.94441645014575        0.97585413139686        0.95309220227175
H            4.55251033037224        1.05615353339959       -0.49525213948619
H            2.98213833314081        2.11087236199315       -0.02010231265575
H            3.53353584012668       -1.63579171347502        0.10287848796874
H           -1.83337778176212        3.05334036419127       -0.01305134910686
H           -2.94401247570265        2.03201648113594       -0.97285342108864
H           -3.04001451483181        2.00466845351998        0.78862512709559
H           -1.22545207325980       -3.17069750867176        0.88035694306349
H           -1.12537919719558       -3.17460425811535       -0.90459278817784
H           -2.57168723790310       -2.54787678746244       -0.09142317551057
H            1.30304042554346       -2.87756029960887        0.01133119358675
25
 energy: 14.519785874841 xtb: 6.6.1 (8d0f1dd)
C            3.45849870815858        1.12788146392848        0.01625800956991
N            2.35489993091713        0.16454121679603       -0.13100313694122
C            2.58117915025325       -1.20399351502589       -0.09274945901664
N            1.38601041570242       -1.87453486488984        0.00613521111757
C            0.37912005636828       -0.98606191537884       -0.00427538439234
C            0.91983127174321        0.30744785758772       -0.03949316668673
C            0.03977525019704        1.42286277838376        0.00570947854196
O            0.33274500017847        2.61504942356441        0.05653189303861
N           -1.35669556257453        1.03876735654109       -0.01933888642101
C           -2.35466208436633        2.10129418282381       -0.05565459679256
C           -1.88107058196939       -0.21419343559670       -0.04191170006255
O           -3.07428646540689       -0.43781232446560       -0.08514728275299
N           -0.96207931447792       -1.27385310362778       -0.00403585963452
C           -1.48363329346220       -2.62650735980343       -0.03032184921342
H            3.94377248269048        0.97764483834235        0.95312921288732
H            4.55163034992572        1.05646427684616       -0.49497752014587
H            2.98095308922751        2.11074497921652       -0.02103289415387
H            3.53196965280834       -1.63545807231137        0.10882902898395
H           -1.83253434078297        3.05308584962865       -0.01228361574045
H           -2.94310864537730        2.03243686308996       -0.97282859952744
H           -3.03954345363692        2.00435870832921        0.78864721896081
H           -1.22612802971900       -3.17054042867457        0.88095295726658
H           -1.12437176871606       -3.17524525359781       -0.90381471177985
H           -2.57131862709026       -2.54795590543177       -0.09223966379949
H            1.30126147734561       -2.87739501410249        0.01194921284155
25
 energy: 14.567731769132 xtb: 6.6.1 (8d0f1dd)
C            3.45848580854929        1.12808128989763        0.01631281945141
N            2.35485590520849        0.16451287565957       -0.13193706740611
C            2.58141131901762       -1.20406453331156       -0.09200337982812
N            1.38614620685707       -1.87459053900674        0.00625819183991
C            0.37916864575276       -0.98632940906547       -0.00444430340854
C            0.91974161307258        0.30728232398434       -0.03982191605616
C            0.03991867542866        1.42272066525965        0.00556582498098
O            0.33309694386197        2.61493267849382        0.05625955622838
N           -1.35708722721501        1.03883545773721       -0.01958486465267
C           -2.35483779837432        2.10145829828997       -0.05561839251122
C           -1.88113559317223       -0.21405427674963       -0.04188110654086
O           -3.07434899368793       -0.43807791546187       -0.08471807606939
N           -0.96211773560595       -1.27389820495664       -0.00410731762875
C           -1.48373718977978       -2.62648372495865       -0.03045902268146
H            3.94358220211116        0.97754613073961        0.95300856496170
H            4.55212679998338        1.05703942524537       -0.49467817934165
H            2.98056955686785        2.11075198577853       -0.02082024680190
H            3.53259818389970       -1.63586258894758        0.10919901859764
H           -1.83237516572869        3.05311640891834       -0.01247488472921
H           -2.94356933993529        2.03265670379741       -0.97261179264200
H           -3.03950775032753        2.00476912355168        0.78890481725931
H           -1.22587820426980       -3.17073962483028        0.88062456176244
H           -1.12485761397398       -3.17512878063272       -0.90422217589707
H           -2.57147121444705       -2.54795018082521       -0.09190678947346
H            1.30143663384328       -2.87749498643470        0.01219005673410
