25
 energy: -42.443190172130 xtb: 6.6.1 (8d0f1dd)
C            3.29194562705765        1.27775654525051        0.12334361793741
N            2.39668394929382        0.15549021430604        0.06641181708766
C            2.72571550171607       -1.14434551225783        0.06858212765107
N            1.60088481339835       -1.90213066882825        0.04819481268009
C            0.49690264656058       -1.06878794403428        0.04522840672016
C            1.01205663051777        0.25558019940633        0.04354994152074
C            0.18706638056339        1.39649198589571       -0.00153729105703
O            0.55512645306530        2.57780995426862       -0.00890548996603
N           -1.17057258175642        1.03388261342235       -0.06120421250445
C           -2.15023227234436        2.10191645474743       -0.14528893902722
C           -1.70210009890518       -0.21754695939723       -0.06993612013807
O           -2.89236006918813       -0.39725471283116       -0.18564047665684
N           -0.82080650724680       -1.34468265610782        0.02422677256159
C           -1.48034992852386       -2.54350234235276       -0.05594353255548
H            3.87495661375554        1.25406540169004        1.04560188797329
H            3.97125998002009        1.27178418455998       -0.72987640117605
H            2.69764396057555        2.19195721107157        0.10477839561724
H            3.72608405907636       -1.52575657683916        0.10519179950361
H           -1.60070853688114        3.03791315963414       -0.11330721190985
H           -2.71724302803492        2.03235800302639       -1.07245833651113
H           -2.84554482498664        2.02907114828935        0.68994005837254
H           -0.86555634360606       -3.42066495564939       -0.20499520486151
H           -2.46882213774892       -2.44663478485308       -0.51210089315884
H           -3.67518005027956       -3.69265110554196        0.31806064895889
H            1.58157940644980       -2.91066533221751        0.04660700671519
