25
 energy: 0.000000000000 xtb: 6.6.1 (8d0f1dd)
C            3.23720163006194        1.16630919979326        0.08434469647475
N            2.29877817382611        0.07527477071623        0.03981603040599
C            2.58028210190900       -1.21425402444508        0.03006176031096
N            1.43813958087363       -1.93419271955128        0.00098261760884
C            0.39035688448383       -1.05887472636071       -0.00790371836672
C            0.93510056364412        0.21347819449412        0.01709077491437
C            0.09450143893243        1.40504303904423       -0.00410947031874
O            0.49712751527797        2.54126714362870       -0.00342325688240
N           -1.25076640035757        1.06271879480407       -0.03085478223738
C           -2.21907211982101        2.15522099834493       -0.05001256985998
C           -1.81739487048744       -0.20012725993278       -0.04692818574614
O           -2.99983886758376       -0.37846417018721       -0.07008878229737
N           -0.92618586207120       -1.30210215599479       -0.03682761578324
C           -1.46982264913417       -2.64643102187190       -0.06029820460571
H            3.71247264356769        1.21471455160235        1.06488849150277
H            4.00791497605742        1.03430808813993       -0.67357694370751
H            2.69910007168542        2.09770118228144       -0.09130154882931
H            3.56654120610678       -1.63682992603973        0.04233140067262
H           -1.67107961066214        3.09322851271934       -0.02552706933167
H           -2.82428953597071        2.09428624779827       -0.95318082946668
H           -2.87644029173232        2.07745725625962        0.81450067533302
H           -1.17061996399332       -3.19584890659852        0.83242232437030
H           -1.14560257411436       -3.17511610292205       -0.95688275822323
H           -2.55549792440841       -2.55659984320617       -0.07459039797972
H            1.38130855184625       -2.94313852034425       -0.01389874181052
25
 energy: -3.451047300457 xtb: 6.6.1 (8d0f1dd)
C            3.24954348936311        1.19124380799293        0.09316478837614
N            2.31696707671276        0.10436090965035        0.04101791744760
C            2.61530961129912       -1.22073422956243        0.03162309177727
N            1.44677341985613       -1.93640150005218        0.00003128792616
C            0.40369045472893       -1.06209773842528       -0.01127525080403
C            0.93774760364061        0.22070667866292        0.01599039569397
C            0.11093806214744        1.39457451301878       -0.00370537875060
O            0.50722633778263        2.56046188341037        0.00022286229094
N           -1.24960706973395        1.04877714121149       -0.03540988377369
C           -2.21092303562072        2.14307694781612       -0.06009254159273
C           -1.81430390656751       -0.20123398444909       -0.05006677973796
O           -3.01046986814473       -0.38150109396193       -0.08031029062347
N           -0.93563125697635       -1.30700280103691       -0.03435472239647
C           -1.52531887855432       -2.63683078538231       -0.04669111291379
H            3.73998340726925        1.22898254519080        1.06975676289851
H            4.01150483434352        1.07123435143722       -0.67874628438262
H            2.69923925861222        2.11690246073101       -0.06510345552028
H            3.59794499019914       -1.63767972320060        0.04786689430186
H           -1.65262448162573        3.07605735410731       -0.03276506567845
H           -2.81086315501162        2.08647858507697       -0.96783600927009
H           -2.87260174801217        2.06990247020661        0.80220448002077
H           -1.12766388757057       -3.23109143338706        0.77904653451144
H           -1.26569566550760       -3.15151184735199       -0.94772877624716
H           -2.64160832544805       -2.61729351845982       -0.02632152419944
H            1.39265740075465       -2.94035239107126       -0.01348404320663
25
 energy: 2.076611566262 xtb: 6.6.1 (8d0f1dd)
C            3.26231468200451        1.22237361436132        0.10753300195295
N            2.33567184288813        0.13599143000572        0.04395265766374
C            2.65484350631594       -1.21932712361654        0.03616804685608
N            1.46513799477925       -1.93225432501001        0.00048001261125
C            0.41934036585645       -1.07342275086722       -0.01300858796638
C            0.93913442372142        0.22416416869785        0.01560189837247
C            0.13434628374230        1.37478439775016       -0.00266433457206
O            0.51230489272054        2.56285906654092        0.00767169204019
N           -1.24577252202853        1.03168672577171       -0.04464355871351
C           -2.19599497336247        2.12910338519188       -0.07972084665926
C           -1.80143776936467       -0.20508253329289       -0.05738685135211
O           -3.00523138861759       -0.38527091283954       -0.10183442925963
N           -0.94618258463094       -1.31894160365308       -0.02639214363770
C           -1.60142445755586       -2.62986183868836       -0.02471665851987
H            3.78312032641952        1.24509848375280        1.07289922889125
H            4.01082667146255        1.13485603316144       -0.68688128539652
H            2.69928354949540        2.14654509052067       -0.01501731751477
H            3.63714415048288       -1.62275758861227        0.05900606264294
H           -1.62525570501879        3.05535034972460       -0.04685136941196
H           -2.78635708761730        2.07581248614951       -0.99452731664346
H           -2.86657106962714        2.05982618229228        0.77646121908833
H           -1.05541439559806       -3.29351333905049        0.69166967653521
H           -1.48812341237867       -3.11324724920643       -0.97088678481631
H           -2.75211291203495       -2.68176412555279        0.09243930103563
H            1.42862425588229       -2.93397942135919       -0.01231741707926
25
 energy: 10.885157447336 xtb: 6.6.1 (8d0f1dd)
C            3.26967136229782        1.24942431566010        0.12006561367803
N            2.35079296521398        0.15648247729059        0.04742274433457
C            2.68639781763683       -1.21170036791683        0.04105024392347
N            1.49248147512294       -1.92811180925431        0.00512652851563
C            0.43495776397630       -1.09108529963105       -0.00613361311631
C            0.94361073829292        0.22003313775488        0.01869304836936
C            0.15354509337196        1.36152727127128       -0.00004316454208
O            0.51451188820027        2.55888992947593        0.01513024499489
N           -1.23916034368537        1.01980918100153       -0.05466493430279
C           -2.18164919110563        2.11784076335085       -0.10206915143101
C           -1.78540817624005       -0.21369562526850       -0.06683980057786
O           -2.99227501784091       -0.39300995519225       -0.12762065428326
N           -0.94857371319284       -1.33771472262154       -0.00966070312109
C           -1.66406201910134       -2.63227293470154       -0.00070310537354
H            3.82325023699630        1.25419596091136        1.07054068564201
H            4.00135165352862        1.20183164242688       -0.69828519232755
H            2.69618005848080        2.17479115744688        0.04064890681206
H            3.67377225937808       -1.59901479491249        0.06935948360207
H           -1.60253686003923        3.03871996208817       -0.06281213726544
H           -2.76063983064646        2.06514440613296       -1.02431273946604
H           -2.86185790106484        2.05023938626470        0.74666224901702
H           -1.00275159387240       -3.36042195369232        0.58762789054972
H           -1.73654393210719       -3.06192352148015       -1.00538499495548
H           -2.83460071708846       -2.71990082292712        0.23251308336132
H            1.48175065142404       -2.93104918130594       -0.00927663589048
25
 energy: 17.153015459958 xtb: 6.6.1 (8d0f1dd)
C            3.27225266531086        1.26817660215395        0.12549984785685
N            2.36131118194147        0.16476337460077        0.04886719285583
C            2.70646108529193       -1.20020717174205        0.04256352735733
N            1.52176045213237       -1.92420618705446        0.01326593398040
C            0.44704412565886       -1.10968146368416        0.01088350431263
C            0.95024758551036        0.21058737510880        0.02555591942277
C            0.16630576577655        1.35522960628510        0.00440758722594
O            0.51540402280059        2.54957738504688        0.02299315229648
N           -1.23091814917254        1.01275326275821       -0.06194332781388
C           -2.16987622639633        2.10956669652934       -0.11897591665994
C           -1.77030024130387       -0.22456218828623       -0.07804005222931
O           -2.97572091545440       -0.40227314604930       -0.15527237826400
N           -0.94615981528341       -1.35813105917134        0.01302413710853
C           -1.70886973302177       -2.63971160320292        0.01806846159594
H            3.85688784885473        1.25504866327338        1.05860786705606
H            3.98394460370397        1.25956824019911       -0.71499946730210
H            2.69133108836087        2.19457765398962        0.08908174913978
H            3.70172966720391       -1.57231203586372        0.07198603064517
H           -1.58710407937533        3.02732558579994       -0.07331195913805
H           -2.73910028895428        2.05697619712475       -1.04697022695727
H           -2.85785374267145        2.04171279753012        0.72316213017581
H           -1.01015485964057       -3.40463730820801        0.48615176295196
H           -1.92232693731376       -3.00134559448590       -0.99672774175072
H           -2.88319597188970       -2.74994442192689        0.32585404495145
H            1.53911553586706       -2.92982265855289       -0.00669788267040
25
 energy: 19.387638180091 xtb: 6.6.1 (8d0f1dd)
C            3.27003002764416        1.27383373784789        0.12498105747021
N            2.36506715496679        0.15983090744782        0.04868136134769
C            2.70953568392645       -1.18654249707194        0.04346677645939
N            1.54521167018436       -1.92042348757323        0.02480359861336
C            0.45198728122439       -1.12369763732403        0.03326407883720
C            0.95678381558529        0.19935795309620        0.03424577326031
C            0.17102131838049        1.35607756520088        0.00783040425859
O            0.51567359341962        2.53788975114379        0.02837558968444
N           -1.22211116034495        1.00990237083880       -0.06479643903322
C           -2.16261473488020        2.10438995038450       -0.13145878673769
C           -1.75986563075846       -0.23577957739237       -0.08374907294467
O           -2.95995011415081       -0.41155888737494       -0.18210865712757
N           -0.94104302821133       -1.37463193265028        0.04049827153928
C           -1.72683665809696       -2.65139142631252        0.02972437876302
H            3.87557684554348        1.24669186625990        1.04086497146750
H            3.96123040952086        1.29212347305767       -0.72868892405205
H            2.68788071438394        2.19830085995658        0.11976312805044
H            3.71267675778928       -1.54860951411974        0.07366218042922
H           -1.58193566576374        3.02245199066757       -0.08195287694638
H           -2.72489470556366        2.05104126944856       -1.06290287056172
H           -2.85611935419345        2.03737903932520        0.70571319625776
H           -1.03242678967025       -3.43063731490120        0.37587363920057
H           -2.04077204977261       -2.91055848405341       -0.96388802388121
H           -2.88908781829802       -2.77822952875472        0.39516155662066
H            1.58719710507142       -2.92818184497491       -0.00033041482789
25
 energy: 21.369901045222 xtb: 6.6.1 (8d0f1dd)
C            3.26697672830954        1.27091766908375        0.12311503326996
N            2.36527676523225        0.15284546029770        0.05014270592308
C            2.70474164567299       -1.17668644531744        0.05026646928216
N            1.55668643875105       -1.91898214287948        0.04411069817543
C            0.45392564799679       -1.12777061091801        0.05830649682933
C            0.96044041329512        0.19467207990857        0.04448434361308
C            0.17127500237969        1.35823183654169        0.00851284703329
O            0.51781772936611        2.53418049875742        0.02566617875395
N           -1.21527259374698        1.00667628078764       -0.06434363992028
C           -2.16052058226252        2.09924265492210       -0.14811027015667
C           -1.75387939116438       -0.24414362013302       -0.07435831383667
O           -2.94943046643835       -0.42141947525418       -0.20175141200266
N           -0.93355466739588       -1.38016713188239        0.08021526777006
C           -1.72235428138206       -2.65773603674314        0.03981777412833
H            3.88051379453619        1.23403511037829        1.02773420520244
H            3.94102392781728        1.29588873735192       -0.73641429020201
H            2.68433160015144        2.18949635530418        0.13163069196787
H            3.71054952703843       -1.53631336125390        0.08651873304760
H           -1.58604937390681        3.02131192184296       -0.10063755058209
H           -2.71710124905004        2.04146367552337       -1.08248636237665
H           -2.85964793496835        2.03890486626825        0.68492779649812
H           -0.97868096754463       -3.48945705230885        0.22915501960606
H           -2.17176456946695       -2.76475281514302       -0.97149776712327
H           -2.86405784827604       -2.80567986900285        0.50017487770270
H            1.61096937299220       -2.92572998395945        0.02185436354409
25
 energy: 18.559026361189 xtb: 6.6.1 (8d0f1dd)
C            3.26372715131800        1.26257526162442        0.11682253840274
N            2.36091510506374        0.14439545066564        0.04841063398414
C            2.69343978276987       -1.17330123307338        0.04949213576946
N            1.55308149404971       -1.92100277870563        0.05524916891762
C            0.45088637832226       -1.12319269109343        0.07090316065409
C            0.95995604153592        0.19533690969201        0.05117653124908
C            0.16539908429226        1.35897816574051        0.01025177941598
O            0.51964205103656        2.53370474961097        0.02497312014487
N           -1.21268123646882        1.00407153809067       -0.05958061462527
C           -2.16247660654861        2.09626225531511       -0.14916027133768
C           -1.75431215589551       -0.24770293461534       -0.06834111216788
O           -2.94555046325195       -0.42776427367775       -0.20650465081871
N           -0.92659128410995       -1.37560442814731        0.09841471728749
C           -1.70206548826605       -2.65725981269712        0.03180066077157
H            3.87782464583130        1.22151308757232        1.01851220746605
H            3.92981353336905        1.28216010484536       -0.74565060746774
H            2.67963969169210        2.17827255503471        0.12739895753675
H            3.69770810568525       -1.53882910907911        0.08948518221698
H           -1.59297963035451        3.02239336271038       -0.10469514701398
H           -2.71837897920659        2.03597829767700       -1.08380368023096
H           -2.86249432366369        2.03950803549153        0.68339153040520
H           -0.98624013673688       -3.47468071935420        0.16311414333140
H           -2.16653181598456       -2.69649578473191       -0.93402705559449
H           -2.81199969048497       -2.82460198423840        0.50281028925328
H            1.60248341394218       -2.92568542248496        0.03659027859725
25
 energy: 18.054267760144 xtb: 6.6.1 (8d0f1dd)
C            3.26453299494154        1.26219834046782        0.11309493341996
N            2.36124146461798        0.14522427878753        0.04731972989395
C            2.69484666828911       -1.17555188541813        0.05083397842303
N            1.55069052800512       -1.92465947167490        0.06872610522074
C            0.45306830307479       -1.12060351364118        0.08451145088026
C            0.95931733830558        0.19818989764093        0.05744032740495
C            0.16322790651880        1.35598698178142        0.01194124695998
O            0.52177165265453        2.53572627390272        0.01936862017208
N           -1.21305387660861        1.00066498447264       -0.05644431392083
C           -2.16397382067399        2.09227933679977       -0.15397130097453
C           -1.75236499988565       -0.24960737072720       -0.06033770789070
O           -2.94231670073210       -0.43448458517341       -0.20687307277568
N           -0.92106654835858       -1.37289187055345        0.12386555973976
C           -1.69568015144983       -2.65395646227425        0.02453575579048
H            3.88173052283242        1.21921581950842        1.01423834018521
H            3.92761809325546        1.27973669800170       -0.75437427573695
H            2.67615239647981        2.17704289413799        0.12601200743253
H            3.69663222001054       -1.54541294093794        0.09823280918722
H           -1.59531546246733        3.01979490727473       -0.11343558549422
H           -2.71760483321492        2.02638653743371       -1.08986909495481
H           -2.86538350222655        2.03884135360913        0.67759855830536
H           -0.97207938176942       -3.47739590160186        0.07786904771276
H           -2.21601584245427       -2.62153869282993       -0.91966235281182
H           -2.77707345625042       -2.85759784231787        0.53118704194200
H            1.59331315504209       -2.92855916449629        0.05522608803656
25
 energy: 17.146621246541 xtb: 6.6.1 (8d0f1dd)
C            3.26641984749842        1.26261509688182        0.11080260523857
N            2.36155109897257        0.14892432746225        0.04491407609238
C            2.70029174054874       -1.18464871255522        0.05000713728769
N            1.54248451701453       -1.92985522327748        0.07714209923519
C            0.45535889198826       -1.11642401726545        0.08940976992775
C            0.95764229022747        0.20221116945114        0.05876682118611
C            0.15967565870149        1.35190252322358        0.01082443021221
O            0.52303643677568        2.53826650684295        0.00745125860249
N           -1.21771420235549        0.99961985274548       -0.05259763133170
C           -2.16760303195938        2.09088005709301       -0.15472798635365
C           -1.75263824762652       -0.24764866854027       -0.04883508462698
O           -2.94369735689723       -0.43824023483628       -0.19328179030991
N           -0.91820398712660       -1.36890057992467        0.14558551840623
C           -1.69001525487697       -2.64886156879476        0.00945188841190
H            3.87532022233974        1.22952342704440        1.01899793994466
H            3.94077860072085        1.26959315352375       -0.74997176535399
H            2.67810590570018        2.17824482186244        0.10811745483295
H            3.69743531796744       -1.56031878783970        0.11061001084058
H           -1.59685401399475        3.01758319620150       -0.11968663096713
H           -2.72132021719407        2.01842477671377       -1.09028864314114
H           -2.86808036167368        2.03957003453195        0.67748503035438
H           -0.95774469522720       -3.46316135985074        0.00143447155520
H           -2.24827574962038       -2.56444892252625       -0.89973176237871
H           -2.73357759434309       -2.90173356510623        0.54519261353653
H            1.56983885237608       -2.93408870088887        0.06996206494562
25
 energy: 16.505921037434 xtb: 6.6.1 (8d0f1dd)
C            3.26660861400553        1.26146711111497        0.11113000684883
N            2.36141974955841        0.14843515522809        0.04447795199878
C            2.70169529304536       -1.18727152062185        0.04913977167440
N            1.54084887830650       -1.92989813512546        0.07807401304257
C            0.45600765182478       -1.11593546911160        0.08885097846599
C            0.95853659763545        0.20133993851192        0.05723269222277
C            0.15851662992035        1.35217345030876        0.00732999830618
O            0.52203316101490        2.53729029447794        0.00002959847127
N           -1.21897042984741        1.00067641122362       -0.05142420175721
C           -2.16895102232481        2.09144522888781       -0.15555196494032
C           -1.75265522527202       -0.24747386530037       -0.04128653035879
O           -2.94462302861363       -0.43939863127433       -0.18097943314388
N           -0.91758793681061       -1.36998316435105        0.15416369277218
C           -1.68561863808393       -2.65049474358585        0.00504819509722
H            3.86635250057630        1.23648876086125        1.02544424621215
H            3.95014695174258        1.26116930824025       -0.74187909851079
H            2.68037575879612        2.17793875507972        0.09504920819614
H            3.69763432107152       -1.56307195049542        0.11823761905382
H           -1.59810229850233        3.01780404233697       -0.12326108436538
H           -2.72387105267629        2.01694713342333       -1.09016515281972
H           -2.86893336590552        2.04200868549173        0.67720321914917
H           -0.95155373115055       -3.46011040367042       -0.02950746681233
H           -2.26988306452424       -2.53743125593774       -0.89663127140089
H           -2.71094119311217       -2.92040810003809        0.55399989598792
H            1.56372954726184       -2.93467843350205        0.07230901275713
25
 energy: 16.281818754122 xtb: 6.6.1 (8d0f1dd)
C            3.26622836079631        1.26046385459669        0.11211648144372
N            2.36062943883325        0.14805950478133        0.04461352836128
C            2.70229730136444       -1.18916962091945        0.04668842094415
N            1.53946194236665       -1.92911197699735        0.07598764354958
C            0.45529860016448       -1.11607501044515        0.08501595864914
C            0.95893018254179        0.19993575584289        0.05508744275103
C            0.15865608940450        1.35306777431697        0.00483631854884
O            0.52110344631397        2.53617185443257       -0.00464050153599
N           -1.21958737693132        1.00255487774533       -0.05085693260469
C           -2.16925749581719        2.09309605620435       -0.15524822045788
C           -1.75349971406857       -0.24591537155959       -0.03606010055814
O           -2.94706488611025       -0.43693874746576       -0.16891456248034
N           -0.91942560704784       -1.37086857528932        0.15464811620862
C           -1.68697821425522       -2.65053176376822        0.00107486886492
H            3.85795430590124        1.24208097295828        1.03337554817519
H            3.95893806657245        1.25395023677594       -0.73494105796403
H            2.68136968072188        2.17901556773330        0.08461978148777
H            3.69785840657374       -1.56332608982589        0.12247314337783
H           -1.59815021468671        3.01894981344238       -0.12425915006300
H           -2.72539500814196        2.01810846929680       -1.08916049096673
H           -2.86889813102833        2.04455825084558        0.67798986563429
H           -0.94690239464890       -3.45825543059885       -0.03920434522149
H           -2.27012889401091       -2.53787561636949       -0.89087737324397
H           -2.70145340026508       -2.92839206284048        0.55313531027471
H            1.56023018339368       -2.93452412072075        0.06953420297242
25
 energy: 16.119547658351 xtb: 6.6.1 (8d0f1dd)
C            3.26579999947383        1.26055637434679        0.11257719757911
N            2.36036859366462        0.14816792372861        0.04497077993214
C            2.70232319668872       -1.18827662930718        0.04467342802767
N            1.54079401126984       -1.92841852903458        0.07525889266122
C            0.45525930951618       -1.11675353880846        0.08355542479441
C            0.95909036633569        0.19932534805929        0.05480541513002
C            0.15965094618811        1.35339356999772        0.00517044392041
O            0.52069976839538        2.53596091657700       -0.00395238386491
N           -1.21874881337612        1.00206838465870       -0.05120163116129
C           -2.16853382322243        2.09259347820536       -0.15515793057091
C           -1.75320118112256       -0.24649185543096       -0.03638552074139
O           -2.94729868829629       -0.43650810917198       -0.16707238103713
N           -0.91958832896505       -1.37204088641443        0.15166798680261
C           -1.68805363400477       -2.65118039029461        0.00046468072302
H            3.85550962636970        1.24322918557497        1.03584954783906
H            3.96065301216891        1.25225962497685       -0.73317103565041
H            2.68143720097082        2.17980770157654        0.08251747046684
H            3.69848086734076       -1.56052477074091        0.12281087549420
H           -1.59779121080043        3.01871146296637       -0.12341017686441
H           -2.72446093499421        2.01854127679637       -1.08938181321087
H           -2.86858813556109        2.04393178562520        0.67781176822961
H           -0.95077899784519       -3.45605041521625       -0.03475752664109
H           -2.27246950208556       -2.54337607600583       -0.89280575601978
H           -2.70159709792525       -2.92606250246836        0.55513499756789
H            1.56325811775246       -2.93383472802410        0.06706114274120
25
 energy: 16.038532981351 xtb: 6.6.1 (8d0f1dd)
C            3.26529168168215        1.26048440688041        0.11267479940951
N            2.35989820941035        0.14811711735460        0.04536673724407
C            2.70173889637628       -1.18702474364531        0.04196909297466
N            1.54208705529265       -1.92777854158089        0.07563522325078
C            0.45480543667740       -1.11746818297220        0.08369424170344
C            0.95893079779540        0.19883621310848        0.05518724270391
C            0.16068096738616        1.35376200798530        0.00589813669047
O            0.52040760681988        2.53588986096694       -0.00299441485948
N           -1.21785492606520        1.00154971706452       -0.05177822668386
C           -2.16764142472365        2.09211771759301       -0.15564237210587
C           -1.75302521089810       -0.24695356951848       -0.03678656950119
O           -2.94735422848576       -0.43583583984387       -0.16612800998218
N           -0.92002908421668       -1.37290461053734        0.15016675758922
C           -1.68997423606474       -2.65125030620885        0.00078946336596
H            3.85346584057135        1.24411456615668        1.03733811888019
H            3.96172831331791        1.25054466274287       -0.73185847238636
H            2.68176585459911        2.18031163572294        0.08056865379012
H            3.69865167480636       -1.55721493483584        0.12383718668041
H           -1.59725036668220        3.01855036292507       -0.12291553970883
H           -2.72287090690461        2.01888588883488       -1.09041178995065
H           -2.86831425891188        2.04319406460119        0.67679405816117
H           -0.95208592654713       -3.45927219463438       -0.03612771212813
H           -2.27595650284573       -2.54409700256861       -0.89318494090097
H           -2.70187865392085       -2.92440176593385        0.55981296181111
H            1.56699805946764       -2.93312792748513        0.06512927009973
25
 energy: 15.911655451143 xtb: 6.6.1 (8d0f1dd)
C            3.26536413679251        1.26047925968423        0.11255338356716
N            2.35989644881888        0.14825123415361        0.04543299603340
C            2.70165530922477       -1.18707253242019        0.04002008063546
N            1.54198494237825       -1.92792402051200        0.07579294306137
C            0.45475296549092       -1.11744432813843        0.08389965283264
C            0.95871721918545        0.19906977689259        0.05542796656653
C            0.16076655529012        1.35370171298442        0.00620861781966
O            0.52029134987833        2.53624784423868       -0.00254218640121
N           -1.21800241574803        1.00134110422808       -0.05210857102378
C           -2.16770891882807        2.09196926923474       -0.15551734991977
C           -1.75313858868285       -0.24694432107581       -0.03709744513569
O           -2.94751816844757       -0.43570902745182       -0.16605373886223
N           -0.91999712087693       -1.37280492423929        0.14933219358727
C           -1.69004837401389       -2.65092181640452        0.00118612550017
H            3.85310274831423        1.24462490640902        1.03758950350205
H            3.96239261945043        1.24994541548776       -0.73165285419426
H            2.68194071242262        2.18042266381788        0.07979254291144
H            3.69853563569882       -1.55697784784013        0.12495257650265
H           -1.59722906430692        3.01838228844630       -0.12241704497331
H           -2.72275255697156        2.01900127632462       -1.09037060258292
H           -2.86838241428298        2.04264441272043        0.67682640212462
H           -0.95348164665107       -3.45983142986839       -0.03445594709242
H           -2.27539718681515       -2.54528972168480       -0.89310274545739
H           -2.70062211618827       -2.92293408652972        0.55912772998471
H            1.56709259680411       -2.93319850628518        0.06420966716108
25
 energy: 15.576206209637 xtb: 6.6.1 (8d0f1dd)
C            3.26566271876601        1.26020507025561        0.11247312822651
N            2.36004045185446        0.14824845963239        0.04562444602285
C            2.70134663230957       -1.18765666445325        0.03383245848149
N            1.54118000694951       -1.92846039137799        0.07578166868364
C            0.45462428105476       -1.11718388066101        0.08421929815938
C            0.95827459471214        0.19968973299676        0.05609618482383
C            0.16063148060370        1.35348619069595        0.00672307910847
O            0.52008369689690        2.53693253061507       -0.00128623280046
N           -1.21871376767067        1.00115692717380       -0.05306366450467
C           -2.16822589789716        2.09197081084112       -0.15534586260138
C           -1.75360607729434       -0.24669286032271       -0.03810658841397
O           -2.94797516573497       -0.43561839683748       -0.16683673901022
N           -0.91986275658818       -1.37219045133954        0.14666326879003
C           -1.68971731409095       -2.64993433347988        0.00135680682228
H            3.85275448660334        1.24521702469013        1.03796769019255
H            3.96357509387935        1.24879338166181       -0.73123363810560
H            2.68226459808024        2.18021911969729        0.07876380013100
H            3.69763956395498       -1.55739060913340        0.13028735034652
H           -1.59740154154940        3.01816964873142       -0.12142130734227
H           -2.72291765848672        2.01960715906725       -1.09030806852250
H           -2.86885825847854        2.04167784371312        0.67683993209748
H           -0.95384228331833       -3.45924654568580       -0.03281008320478
H           -2.27412350210833       -2.54639000480765       -0.89282419731191
H           -2.69678850034374       -2.92202835312149        0.56208132202522
H            1.56616978583246       -2.93355280637940        0.06155984405378
25
 energy: 15.542567607245 xtb: 6.6.1 (8d0f1dd)
C            3.26567880507848        1.26026729777848        0.11237161690260
N            2.36028586603273        0.14806139938333        0.04562926796998
C            2.70154748366571       -1.18775450751329        0.03091956343736
N            1.54121404765054       -1.92847724327345        0.07545573806454
C            0.45489365327639       -1.11716761000471        0.08497034916477
C            0.95853486248090        0.19963225752577        0.05653647524615
C            0.16053345167884        1.35345421517172        0.00680672476232
O            0.52009875316559        2.53663674453157       -0.00104064326869
N           -1.21872395151608        1.00134712247790       -0.05310999909309
C           -2.16837188558845        2.09214127072813       -0.15544911281839
C           -1.75345327120377       -0.24668503527551       -0.03829522885606
O           -2.94766924407197       -0.43601500666359       -0.16756285249536
N           -0.91950896342931       -1.37211762113578        0.14657514741922
C           -1.68964546656489       -2.64990570148893        0.00168710777015
H            3.85358980034225        1.24462491183016        1.03722650210064
H            3.96266204253849        1.24972384115037       -0.73192129115242
H            2.68195838275127        2.18002143302901        0.07979356934396
H            3.69722473839378       -1.55757610778348        0.13382345796583
H           -1.59763509801892        3.01832598549353       -0.12153129877641
H           -2.72321586726054        2.01974812229019       -1.09034147161083
H           -2.86900009961045        2.04185925381391        0.67680970104489
H           -0.95339063504107       -3.45955139739713       -0.03301706253752
H           -2.27532622877545       -2.54666852465616       -0.89250635765617
H           -2.69612585699684       -2.92132318705862        0.56241397284246
H            1.56605934895890       -2.93357331078132        0.06079002037732
25
 energy: 15.446879517036 xtb: 6.6.1 (8d0f1dd)
C            3.26540508427655        1.26029759828491        0.11213268692865
N            2.36035456187965        0.14759248892158        0.04535682737818
C            2.70205855304768       -1.18812194840510        0.02058102224088
N            1.54090114890865       -1.92842782043150        0.07377143848168
C            0.45512559006938       -1.11701380048793        0.08639324117756
C            0.95902256481098        0.19923335647568        0.05757374675590
C            0.16011765151410        1.35350002458354        0.00720541256742
O            0.52008819814876        2.53579191277026       -0.00076288218676
N           -1.21856996344961        1.00206217750041       -0.05279294580167
C           -2.16831703889950        2.09285206046673       -0.15560874979428
C           -1.75333587479894       -0.24637135749185       -0.03880999963133
O           -2.94724578869372       -0.43635982010409       -0.16876003288196
N           -0.91923039786397       -1.37189294442089        0.14606671659527
C           -1.68908181979077       -2.65031005574945        0.00175525125099
H            3.85565906252780        1.24251238734450        1.03527092701858
H            3.95990240037301        1.25234104603266       -0.73372929036623
H            2.68123086369141        2.17962196129502        0.08301843988888
H            3.69562938161815       -1.55795541479096        0.14614364222130
H           -1.59774336490317        3.01901444488413       -0.12211371488750
H           -2.72358358647064        2.02003064346813       -1.09031615866922
H           -2.86887118892888        2.04289773778910        0.67689888067351
H           -0.95146653591752       -3.45906699176214       -0.03345004561486
H           -2.27621373173647       -2.54766764359300       -0.89209824540977
H           -2.69469343558401       -2.92188365245460        0.56450476162159
H            1.56507233410717       -2.93364778795304        0.05880296659043
25
 energy: 15.386969836713 xtb: 6.6.1 (8d0f1dd)
C            3.26518476796013        1.26030817927904        0.11171875655580
N            2.36000521840598        0.14769100958209        0.04501573307976
C            2.70259740711854       -1.18822839310724        0.01223855342843
N            1.54081550697773       -1.92845270565347        0.07291983441232
C            0.45517242329783       -1.11694025900727        0.08747034292315
C            0.95911374657425        0.19899017183859        0.05838997371952
C            0.15995667593977        1.35347882196763        0.00790735522095
O            0.51999595607595        2.53565972050217       -0.00069126216995
N           -1.21826607439331        1.00206518111804       -0.05216770683028
C           -2.16803795951836        2.09278723969107       -0.15563337961975
C           -1.75325898209303       -0.24638553066624       -0.03849375523492
O           -2.94718225361735       -0.43627700864320       -0.16891704167754
N           -0.91916766956002       -1.37182119650486        0.14652260474882
C           -1.68896765168002       -2.65039721227429        0.00186671598604
H            3.85625812614151        1.24160285925150        1.03428851960721
H            3.95888499972468        1.25309838798588       -0.73465677130470
H            2.68123966987619        2.17971865591988        0.08405925682026
H            3.69450341812226       -1.55730553769343        0.15460479715365
H           -1.59757686235592        3.01905960966781       -0.12261837602516
H           -2.72331229557977        2.01950720172345       -1.09030055855498
H           -2.86857508451611        2.04325104625454        0.67690048368129
H           -0.95153975625976       -3.45923433976550       -0.03365002467855
H           -2.27623916175675       -2.54759441065316       -0.89191460168419
H           -2.69411156804376       -2.92187406940853        0.56418609037520
H            1.56472207109545       -2.93367881923237        0.05798835621486
25
 energy: 15.415643340596 xtb: 6.6.1 (8d0f1dd)
C            3.26502357525237        1.26013326539347        0.11125842216445
N            2.35940275079088        0.14790835428030        0.04464950686066
C            2.70309497576821       -1.18823523887193        0.00493783776560
N            1.54078165867208       -1.92848373239508        0.07223900583568
C            0.45515130145429       -1.11687590099054        0.08797860628792
C            0.95914272202651        0.19871872792667        0.05891766967239
C            0.15978463686889        1.35347070436140        0.00848254405460
O            0.51992460648030        2.53560523219147       -0.00053833462577
N           -1.21791968480230        1.00188638416891       -0.05143100665795
C           -2.16781241352604        2.09243887112529       -0.15552417024168
C           -1.75310931356997       -0.24658371435813       -0.03804592041454
O           -2.94710343370991       -0.43596486789683       -0.16855184474456
N           -0.91910191277323       -1.37180053459543        0.14745003126882
C           -1.68886494648041       -2.65032270371048        0.00190938108064
H            3.85592019783905        1.24114517181466        1.03395955846926
H            3.95890979442646        1.25250875735263       -0.73490881597370
H            2.68178862084870        2.17993625338697        0.08367934409346
H            3.69330063351936       -1.55597474833371        0.16152766134605
H           -1.59752004373576        3.01889745809541       -0.12285112289027
H           -2.72282663704812        2.01869099056943       -1.09026986422703
H           -2.86844681804311        2.04319299750326        0.67685332921673
H           -0.95162298212052       -3.45887867613884       -0.03378279468690
H           -2.27518721488598       -2.54646663572661       -0.89201153828289
H           -2.69509602595098       -2.92226957560770        0.56348591881075
H            1.56460062063533       -2.93364823737242        0.05762049196556
