25
 energy: -42.402214702267 xtb: 6.6.1 (8d0f1dd)
C            4.81771610764047        0.36202364702736        0.00011357275914
N            2.00008532342249        0.64036178596152        0.14399257545317
C            2.38486482219930       -0.63444488216424        0.17806318635140
N            1.33194081010190       -1.47716845078081        0.04388052745655
C            0.22413059170537       -0.69778910715798        0.01214966028592
C            0.60978184900412        0.63501675700986        0.09603193423506
C           -0.39095318779802        1.66770014436113        0.06017973433661
O           -0.26946979669014        2.87632172427625        0.07269902746291
N           -1.68831853768193        1.09863516869542       -0.02044588262309
C           -2.78216176338651        2.04350765848040       -0.04674513377612
C           -2.07052974783525       -0.21095841666418       -0.07379752684762
O           -3.22427287933769       -0.56980540279992       -0.12768093061252
N           -1.04776356582268       -1.15455591173059       -0.05692209772589
C           -1.35838647773129       -2.56748480815646       -0.10178610779954
H            5.32589904108462        0.35409098222317        0.94937539944039
H            5.46975752944601       -0.12529135561989       -0.74465963418829
H            3.11819324856006        1.12603434337033        0.11531753222022
H            3.48108349194218       -0.76061292485266        0.12058535295471
H           -2.36568846610567        3.05060268705106       -0.03591544301558
H           -3.37117758315040        1.87959303800750       -0.94693594752761
H           -3.42227457268105        1.87614298841199        0.81890819755236
H           -0.99103593670521       -3.06782059191958        0.79629574800655
H           -0.91526365707696       -3.02557257856674       -0.98988186969026
H           -2.44382196394275       -2.65729419786311       -0.14606863295722
H            1.39172184110547       -2.48375519261309        0.00370300665687
