25
 energy: -42.093044050000 gnorm: 0.008847675973 xtb: 6.6.1 (8d0f1dd)
C            3.28563131722449        0.86687264065534        0.36035233373570
N            1.98997553009646       -0.85663656263211       -0.94812142791731
C            2.33425381354544       -0.28485910712905        0.35457437932054
N            1.15478280130780       -2.04984337221370       -0.83261140890772
C            0.21783614962475       -1.35910637742102       -0.22580078211121
C            0.95710929848487       -0.07559062754979       -0.20618245675451
C            0.16573617658581        1.17052551811392       -0.41376462693429
O            0.59569556079007        2.21295562983724       -0.82507413215261
N           -1.13257769903755        0.95014654876946        0.00639075219100
C           -2.01388266499066        2.11530478668678        0.06396728227632
C           -1.76465628273867       -0.25343863534952        0.35081956185701
O           -2.89058907214662       -0.27615502606801        0.74612441903323
N           -1.04621068666007       -1.46223363885480        0.14200400904121
C           -1.75476478637596       -2.72909848955846        0.18355262921580
H            3.26004662803491        1.34921193987337        1.33550837065281
H            4.30244369339820        0.51483679043432        0.19362147025359
H            3.02687408874784        1.60670163961555       -0.39461706701942
H            2.46580749189425       -1.03092923800741        1.13566093585212
H           -1.42459345767077        3.00184115631748       -0.15509838831282
H           -2.81641844234332        2.01290953150293       -0.66594474264972
H           -2.45559714614912        2.18755373823727        1.05684708027301
H           -1.35632910290441       -3.34928673491747        0.98542920922189
H           -1.62849222490916       -3.24919427913247       -0.76534462872531
H           -2.80763448541604       -2.52515365815972        0.36868303114991
H            2.49598501569332       -0.66909563141143       -1.81980418468468
