25
 energy: -42.083287758939 gnorm: 0.009694582297 xtb: 6.6.1 (8d0f1dd)
C            2.60808090084731        1.33973131871389        0.06585716192159
N            2.03309775116831        0.02145892814934        0.00085602112626
C            2.67576343292211       -1.12163526598914       -0.18185525956694
N            1.79757830335758       -2.14807722727876       -0.18164358046039
C            0.54269909492772       -1.63346906548554        0.00912383445853
C            0.68939008884184       -0.25499220643223        0.12341288431297
C           -0.48621057286061        0.57554777932402        0.29837725969186
O           -0.45547759918669        1.81392346493497        0.37430479718261
N           -1.62628899538008       -0.14291424608477        0.34979078408943
C           -2.75210052247254        3.96657002636428       -0.27643536580649
C           -1.74378243622222       -1.42153240091460        0.26420077952126
O           -2.76004372810329        2.85451258046871        0.31855029897976
N           -0.65570132833667       -2.23765042419825        0.08042717217241
C           -0.80391922420258       -3.67153197164440       -0.03159662131919
H            3.33797419651001        1.39551311970168        0.87340225905137
H            3.10284320618946        1.58731446955337       -0.87391740110833
H            1.80671403608935        2.05440223662940        0.25175646788443
H            3.73401035040190       -1.22403649951026       -0.31440435523930
H           -1.81961934276082        2.38551633779382        0.42630784786622
H           -3.69410447346254        4.47797520716530       -0.40802022839786
H           -1.84091462505373        4.42454599215134       -0.65970130656196
H           -0.24884808978112       -4.18034255407660        0.75758663404462
H           -0.45789787556555       -4.02085458814409       -1.00601810406484
H           -1.86155624718565       -3.90131548944873        0.07286412919338
H            2.03874521336461       -3.12042098018416       -0.30205449105984
