25
 energy: 55.616638115166 xtb: 6.6.1 (8d0f1dd)
C            3.45197690388808        0.94378033213866        0.14036980722226
N            2.53667557393741       -0.16748356542995        0.03794264602737
C            2.84418217435857       -1.45555785311117       -0.10381887475201
N            1.69370445761461       -2.17684743943711       -0.11552018723763
C            0.63314936450071       -1.31398845458917        0.02099035294391
C            1.18087434471092       -0.03951733564823        0.12087828248996
C            0.29134662638708        1.13575053154426        0.25061179490582
O            0.70427242156353        2.28789564474038        0.23067789733977
N           -0.99687642664077        0.77511760043759        0.35382077479617
C           -3.60912548829803        3.58043889157402       -0.40504781513889
C           -1.60265383161666       -0.36274821373031        0.22135020126706
O           -2.77222523468414       -0.63970288401387        0.17527027938332
N           -0.65727490816437       -1.58475842439269        0.04319498702461
C           -1.21091080752261       -2.90409022544342       -0.01540365097564
H            3.97665726647992        0.96890035374315        1.10070554085771
H            4.18608982553499        0.91086606817116       -0.66428941809421
H            2.87236115164700        1.86551147933457        0.07859922035136
H            3.82728320841873       -1.87505660753644       -0.18711078118297
H           -2.81614361409729        4.29489993409481       -0.37495802909259
H           -3.92782448379380        3.16663063599342       -1.34070106279984
H           -4.09016052764357        3.28520992333280        0.49980496228919
H           -0.87313719541339       -3.50788395957764        0.83013707527261
H           -0.95315730861891       -3.40342186863038       -0.95534208223217
H           -2.29477984335920       -2.79030741902485        0.04420327861457
H            1.59819697518090       -3.17062854228611       -0.23952766325214
