25
 energy: 57.407040334124 xtb: 6.6.1 (8d0f1dd)
C            3.41247138806941        1.00899607465224        0.16415515829506
N            2.39669854360098       -0.00034714723672       -0.00591733132585
C            2.68203795209374       -1.30143762034199       -0.10171680004306
N            1.52858089949195       -2.02156873042826       -0.15802622637328
C            0.48817705559828       -1.13505589621544       -0.06981881371148
C            1.02108774365910        0.13760567273782        0.02444358640327
C            0.10851436616401        1.31337852881258        0.16433588451831
O            0.55736789482950        2.43440685586139        0.37074908609851
N           -1.23266119321414        1.02913651054399        0.08629162083178
C           -2.94116325501305        2.78538249730328       -0.35278066975748
C           -1.76808098447576       -0.17854756123600        0.15485041796437
O           -2.91811184864088       -0.50828835052185        0.33212677620338
N           -0.81828545742625       -1.35432595914988        0.00730629251669
C           -1.28313001159599       -2.70959686724505        0.01394827565709
H            3.95928697156494        0.83411879297356        1.10300426939050
H            4.13022245364846        0.92758414123152       -0.65475586161616
H            2.97128829069199        1.99789760591129        0.17680149978819
H            3.63867957781358       -1.72574235153292       -0.28043138557462
H           -2.27298347149172        3.60093454520429       -0.35065688479832
H           -3.39780759138713        2.53460493856541       -1.27539962160429
H           -3.49976738169537        2.61096727941641        0.52026480372685
H           -0.85775745283891       -3.25221780738142        0.86169177982243
H           -0.93880138320871       -3.18097178986519       -0.90724925736219
H           -2.37508814964648       -2.73318547540326        0.04970814203761
H            1.48970178519310       -3.02075462366228       -0.24827991473141
