25
 energy: 6.828666735643 xtb: 6.6.1 (8d0f1dd)
C            3.31526472376830        1.11750481111057        0.12009339522691
N            2.33207361664492        0.08108547562612        0.02712425059729
C            2.62217033584324       -1.27779885783914       -0.01901599516088
N            1.42365422449561       -1.95916775103632       -0.08011104259146
C            0.41889266635915       -1.06305259696089       -0.00596422120456
C            0.91991955476310        0.22864120107003        0.06939712509790
C            0.06633428649416        1.38601591968823        0.09090557805788
O            0.46454566641868        2.55083466534857        0.16317905965255
N           -1.39959315392492        1.12884243380354        0.00994982909191
C           -2.41739305188527        2.28335103401622       -0.17765551348845
C           -1.85676527473257       -0.17086030473776        0.05310298266118
O           -3.03570000408087       -0.45848350994922        0.08351429914145
N           -0.92662757023650       -1.27133192695775        0.05262517659903
C           -1.39670328396581       -2.64773984913244       -0.02834624615330
H            3.84835824100840        1.08941626141233        1.08173526304303
H            4.06163608933397        1.00692670491046       -0.67408040493038
H            2.80599350970808        2.06962817336000        0.02239353991174
H            3.59427460288618       -1.72246625389620       -0.07040856086737
H           -1.88745951281044        3.23848221391190       -0.18478818091143
H           -3.00584409585685        2.23225571886484       -1.09920424091218
H           -3.09943990332434        2.29418333449727        0.67555444160198
H           -1.04521527357844       -3.22819894036116        0.83095025103248
H           -1.04582347844610       -3.14942204260170       -0.93968313766408
H           -2.48461177823394       -2.63079076252881       -0.02920134244632
H            1.35422803558058       -2.96353609115525       -0.14316070201159
