25
 energy: 54.596795696216 xtb: 6.6.1 (8d0f1dd)
C            3.44288525591848        0.95239379492074        0.12949168665886
N            2.53191328651084       -0.15811309085882        0.03956369419417
C            2.84348567683292       -1.43830709953343       -0.08963515687755
N            1.70580078583812       -2.17904346009466       -0.11101837981814
C            0.63634429521800       -1.32552357905762        0.03139395534402
C            1.17285301152164       -0.04399274188202        0.12766530163358
C            0.27851595289899        1.13235317106137        0.24146877711206
O            0.70588288594274        2.27829290432417        0.25170997265446
N           -1.01601230931191        0.79517229064854        0.31538215069461
C           -3.67490262210762        3.69033366780743       -0.38611706497455
C           -1.59930798052222       -0.35387171723992        0.21278469857224
O           -2.76183224306722       -0.65002085096749        0.22859782252884
N           -0.65337157393881       -1.59670754892581        0.06994403359589
C           -1.21868605834670       -2.91415374629823       -0.02504175632961
H            3.95353960743512        0.94929433500391        1.09259881977018
H            4.18532661313980        0.90218298287120       -0.66623385538649
H            2.85934732679015        1.87333766558004        0.04647444266056
H            3.83044181074136       -1.83955611911496       -0.18091085797134
H           -2.78523772662721        4.28826579003775       -0.33836606960248
H           -3.94479642429032        3.21678358330497       -1.31065155354658
H           -4.09658599520439        3.32675706212286        0.52641739439475
H           -0.91979608521614       -3.53878230863740        0.82241399724842
H           -0.94247067290918       -3.40337412786630       -0.96335094431481
H           -2.30372704872007       -2.77752299895246       -0.00447449124056
H            1.65231842071725       -3.17914542818730       -0.21737119474586
