25
 energy: 55.357376039112 xtb: 6.6.1 (8d0f1dd)
C            3.45047446351600        0.95580798227267        0.13165781630417
N            2.53896921925871       -0.16370800731142        0.03815802359075
C            2.84555406091444       -1.44910276639086       -0.10422087984315
N            1.69456363090547       -2.17369252591479       -0.11358939009269
C            0.63482924132209       -1.31456896932549        0.03836932486870
C            1.18180711712235       -0.03691303322479        0.14006335829245
C            0.29117579534776        1.13657284898690        0.25366056251848
O            0.69605964488978        2.29221837935681        0.22027667578733
N           -0.99661631145959        0.77343501912921        0.35154190646074
C           -3.67079800287488        3.67331958605281       -0.38671928337696
C           -1.59956740664719       -0.36371354481255        0.21854992621421
O           -2.76910732810136       -0.64256454972381        0.18418063235385
N           -0.65468873343596       -1.59402974441612        0.06207971126524
C           -1.21086087440165       -2.91413291804854       -0.02240773451543
H            3.97185377341439        0.95954415033154        1.09545530309224
H            4.19141756592238        0.91322080847861       -0.66610964455627
H            2.86318997901394        1.87607631804279        0.04548129948577
H            3.82919387823466       -1.86968268485279       -0.19235861883074
H           -2.79608258337878        4.29145212903377       -0.34641082258385
H           -3.97652238733544        3.24349170560082       -1.32095778359262
H           -4.08986289110179        3.30665598163156        0.52788427494100
H           -0.89596868461182       -3.52819991205383        0.82481473546169
H           -0.94413406010863       -3.40189974159090       -0.96411768720287
H           -2.29374374468116       -2.78730754472434        0.01862838639517
H            1.62849104703611       -3.17276886721593       -0.23407906537836
