25
 energy: -42.479339748250 xtb: 6.6.1 (8d0f1dd)
C            3.10378653911621        1.02774132383989        0.10184287827181
N            2.30129616661366       -0.02303269884011        0.02075897136929
C            2.55896696876240       -1.35595029550179       -0.00760161391783
N            1.35554054013345       -2.05752780802958       -0.03109240235130
C            0.35718623909948       -1.16498496629828       -0.03489383913852
C            0.90847018186924        0.10689089498177       -0.02265817501671
C            0.11923281791627        1.29447619223349        0.02300038443126
O            0.49670269874400        2.44824499568308        0.06303056756568
N           -1.25411584554410        0.97947143261805        0.01045914809103
C           -2.17957508891475        2.10145681520447        0.04120359268082
C           -1.83454657966567       -0.26074626528304       -0.03552284470321
O           -3.03424512973299       -0.41328407617830       -0.06108081049644
N           -0.98378813216781       -1.37053969560746       -0.03979217834588
C           -1.55996074681382       -2.69558964122230       -0.07977134219623
H            2.63196801875463        1.96425210820476        0.39036093924517
H            4.07364341947361        0.81323658286871        0.49217848857958
H            4.30539992517043        3.28732487529242       -0.54127051209620
H            3.52224026206404       -1.81099986474406        0.06850231428424
H           -1.57006013740774        2.99941124419022        0.08383468842595
H           -2.79715942900378        2.09967684229871       -0.85530635100954
H           -2.82433753134824        2.03134023584825        0.91618978650754
H           -1.27231544555277       -3.27637067832289        0.79838381942937
H           -1.26942700123805       -3.22209686652076       -0.98963475172440
H           -2.64206937680248       -2.57538117201191       -0.08299774296496
H            1.27455623416468       -3.05731035915338       -0.03993569557591
