72
 energy: -99.633476325887 xtb: 6.6.1 (8d0f1dd)
N           -1.52220653102210        3.38747904270492        2.01837090314319
C           -1.68998817336867        2.54599713266632        1.08922908861970
C           -2.95342198856596        2.30292851152187        0.34630325226655
C           -3.41971682256161        0.84554209641661        0.35452177420347
C           -4.33162338479986        0.42654929245660       -0.61980389839265
C           -4.76314872263214       -0.88779348551296       -0.67991656339375
O           -5.64226233894544       -1.39773609585239       -1.59727507090149
C           -6.21263563123332       -0.52187122735184       -2.53104939415524
C           -4.29018941820548       -1.81995040394592        0.27002353168405
O           -4.76838558907231       -3.09642729260861        0.14132482800497
C           -4.40931406551777       -4.02846241086908        1.12941257782058
C           -3.40278973727022       -1.39220367333733        1.23953657430334
C           -2.97252881255238       -0.07187942481733        1.28123359856782
C           -2.58228678928345        2.67294079725590       -1.03335057897229
C           -1.41107493794227        0.60483510224948       -1.77094139951804
C           -0.12503301695331        0.65651926489860       -1.24014079120624
N            0.56904911884513       -0.34456571775152       -0.57225701736680
C            1.96318920483363       -0.21420481459268       -0.20190311645764
C            2.94180593642739       -0.79156274876083       -1.25873603258447
C            4.37064472738021       -0.60867772531443       -0.83715867356858
C            5.05263349384001        0.55998957116484       -1.11850432868130
C            6.36185254750297        0.73701945150920       -0.69706100080346
C            7.01517160125764       -0.24721528681736        0.02348029559176
O            8.30388874615345       -0.17947141470269        0.47579595311383
C            9.05082294250482        0.97134121639718        0.18346512945373
C            6.32245022941418       -1.43636673598995        0.33477902469737
O            7.03694865494565       -2.35819650734331        1.04021947259319
C            6.42723265776200       -3.58085161671830        1.35681000981690
C            5.01844634063757       -1.59810200450973       -0.09774528488258
C           -0.05191195511717       -1.62191440753233       -0.44568485650529
C           -4.10455022498963        3.17067573818785        0.86395754464767
C           -4.40261187671887        2.78661583626488        2.30094709647789
C           -3.79100020666269        4.66068038325541        0.78837266190012
H           -4.66857141935743        1.13784186457752       -1.35824877380261
H           -6.75446036664500        0.29593069844339       -2.04436902654743
H           -6.91349103135659       -1.12231987343019       -3.11111244562513
H           -5.45484713340084       -0.10202817764572       -3.19938532216363
H           -4.69657029112456       -3.69287764677120        2.13162474782755
H           -4.94254575018983       -4.94552099822412        0.88449071726083
H           -3.33566878446055       -4.23460014800785        1.12667780504607
H           -3.02070261023106       -2.07985071040327        1.97631317246180
H           -2.26537309441353        0.22859307058206        2.03768214990968
H           -3.19549938131027        3.36312918680185       -1.54814224291384
H           -1.59955825919863        2.90470650088972       -1.26394754405919
H           -2.02398095462176       -0.29463820320348       -1.62223334605684
H           -1.49429980479637        1.11914952144788       -2.75110099895649
H           -0.89518278431497        1.87259425403825        0.73928430491900
H            0.56756559761977        1.55373537318770       -1.42908377171999
H            2.13581530887746       -0.74667981574582        0.74826399178396
H            2.20325082025201        0.84108850510260       -0.04279642457725
H            2.75538391732866       -0.28185181758319       -2.20355898208568
H            2.72241347249578       -1.85296184726560       -1.39430007192510
H            4.56575546141007        1.34560745955817       -1.67668090851584
H            6.86020978794217        1.65809609378837       -0.94871615218920
H            8.60546619641299        1.86767656998722        0.62998154095249
H            9.15414373615198        1.11795530915823       -0.89606656699314
H           10.03352486867663        0.80129804581747        0.62616368102113
H            7.18055785469300       -4.15568186516721        1.89612868118312
H            5.55155262985270       -3.44340910497440        2.00093953367919
H            6.13370893326140       -4.12552828336292        0.45538794692235
H            4.47910696253387       -2.50377446220381        0.13438479209303
H           -0.14256083320130       -2.11649584200748       -1.42282594067874
H           -1.04859084356322       -1.50762605718596       -0.01660857127338
H            0.54245554732244       -2.24597463292680        0.21910593292761
H           -4.98008377600127        2.95847889565915        0.23904341851914
H           -3.52064786279763        2.97946463528551        2.90424217444873
H           -4.66998509664067        1.73482100820778        2.37388744972394
H           -5.22978309346647        3.39286032437233        2.65564115560799
H           -2.89881036983569        4.87645399475803        1.36140540508232
H           -3.67055467011337        5.00604840566618       -0.23373464428327
H           -4.61155470892072        5.21405072789524        1.23382454628750
H           -0.56794342296177        3.37350012911241        2.37828573003066
