  72
        -99.27245855
 N         -1.8212158575        2.9419727917        2.4378056736
 C         -1.7722854554        2.2621851418        1.3885704477
 C         -2.9357540115        2.0452502102        0.4596028209
 C         -3.3313690598        0.5751218943        0.4612542993
 C         -4.2586584315        0.1211367003       -0.4817578169
 C         -4.6772093163       -1.2015155857       -0.4932497807
 O         -5.5798086934       -1.7595070220       -1.3488172861
 C         -6.1511903858       -0.9456684497       -2.3495098406
 C         -4.1039137300       -2.0309141144        0.4754683594
 O         -4.4964922904       -3.4687898868        0.4841950923
 C         -5.8605541181       -3.7122550919        0.9005208538
 C         -3.1871277166       -1.6581028423        1.4159835309
 C         -2.8068702737       -0.3179660164        1.3909124464
 C         -2.4339247505        2.4637075488       -0.9477288750
 C         -1.4942131118        1.4520461100       -1.6308185138
 C         -0.1500011812        1.3682182468       -1.0152574576
 N          0.4859647535        0.2356938997       -0.7086941174
 C          1.8754223575        0.2548978418       -0.3213668210
 C          2.8015165081       -0.1394125106       -1.4883109657
 C          4.2326876335       -0.1353077540       -1.0301902781
 C          4.9930774850        1.0189804398       -1.0900059369
 C          6.3044726130        1.0286459276       -0.6379868845
 C          6.8787209755       -0.1183472149       -0.1124510567
 O          8.1414386216       -0.2236900261        0.3530715903
 C          8.9827678651        0.9045245806        0.3026599996
 C          6.1052420738       -1.3068943657       -0.0438781156
 O          6.7423203035       -2.3796189285        0.4778088812
 C          6.0619232392       -3.6079631712        0.5543333379
 C          4.7976111490       -1.2931653391       -0.4987314010
 C         -0.1467165413       -1.0543599754       -0.8340526378
 C         -4.1940611882        2.8799768971        0.8401917743
 C         -4.7579017964        2.4555884163        2.1946446939
 C         -3.9411521944        4.3852976174        0.8376749740
 H         -4.6662946102        0.8102391713       -1.2023765464
 H         -6.7304277763       -0.1274551591       -1.9129180196
 H         -6.8141200982       -1.5986527603       -2.9137982943
 H         -5.3863053532       -0.5414210140       -3.0179644508
 H         -6.0758293008       -3.2261769899        1.8530270024
 H         -6.5115810482       -3.3117901768        0.1235467727
 H         -6.0027113275       -4.7881054533        0.9798654881
 H         -3.8854569260       -3.8713772323        1.1339331694
 H         -2.1069031464        0.0383598749        2.1333340030
 H         -3.2964082801        2.6107051929       -1.5981159512
 H         -1.9198464831        3.4220003815       -0.8631646810
 H         -1.9746115655        0.4759966306       -1.6667542259
 H         -1.3641854606        1.8003454962       -2.6642668077
 H         -0.8495891886        1.7912646315        1.0017118211
 H          0.4231204406        2.2789978383       -0.9347670253
 H          2.0243327598       -0.4403246171        0.5096529157
 H          2.1434838931        1.2563390017        0.0206103369
 H          2.6649355416        0.5747160315       -2.3020614374
 H          2.5272974544       -1.1313765002       -1.8501619755
 H          4.5719991833        1.9234764990       -1.5021803638
 H          6.8739221613        1.9410452105       -0.7047838469
 H          8.5875108489        1.7274729725        0.9063535802
 H          9.1346206001        1.2459554840       -0.7259075329
 H          9.9341385701        0.5777907710        0.7181107340
 H          6.7754485092       -4.3114108712        0.9792192853
 H          5.1863171502       -3.5430547050        1.2090034987
 H          5.7536136550       -3.9598376712       -0.4355087663
 H          4.2029458410       -2.1925595081       -0.4572545376
 H         -0.3718570539       -1.2868575073       -1.8775340723
 H         -1.0743779316       -1.0808973824       -0.2554106020
 H          0.5216338951       -1.8182193291       -0.4454980433
 H         -4.9524284433        2.6651572487        0.0777151921
 H         -4.0478000499        2.6902471370        2.9804987355
 H         -4.9671243063        1.3884474893        2.2165875439
 H         -5.6835957134        2.9911867679        2.3891317570
 H         -3.1650762302        4.6373674030        1.5531488045
 H         -3.6543868801        4.7467942372       -0.1463522649
 H         -4.8533770152        4.8998231272        1.1288073362
 H         -0.9587457734        3.0448554449        2.9644187441
