  25
        -42.14327845
 C          2.8252663561        1.3377071544       -0.4858250042
 N          2.1465808917        0.1045096148       -0.1934346831
 C          2.7338028834       -1.0685600252       -0.1034299543
 N          1.8415573309       -2.0133386458        0.1800070441
 C          0.5544152144       -1.4697894651        0.3000015567
 C          0.7626865705       -0.0491571465        0.0323572725
 C         -0.0219704164        1.1022617890        0.0111176666
 O          0.2727083081        2.2606641635       -0.1077758477
 N         -1.5784134652        0.8674402493        0.1835757836
 C         -2.0620274236        1.2876656188        1.5006626218
 C         -2.2610287760        0.8791882821       -0.8597012388
 O         -2.7687733920        0.8401938409       -1.8891023051
 N         -0.3596180598       -2.2925380914        0.6168722421
 C         -1.7556991129       -2.1392724614        0.8052123265
 H          2.7237535432        2.0352829983        0.3465643532
 H          3.8784840272        1.1313315844       -0.6602747421
 H          2.3966231704        1.8102002334       -1.3699994428
 H          3.7859548908       -1.2358144809       -0.2405470720
 H         -1.9104831332        2.3621355941        1.6210835850
 H         -3.1192402787        1.0532870337        1.6053722562
 H         -1.4834647117        0.7608779148        2.2584228977
 H         -1.9886197455       -1.4710933256        1.6374194086
 H         -2.1449852779       -3.1292915942        1.0448697721
 H         -2.2602584096       -1.7800380251       -0.0959927481
 H          2.0138662347       -2.9990627795        0.3094839390
