72
 energy: -99.327967353997 gnorm: 0.002434163003 xtb: 6.6.1 (8d0f1dd)
N           -1.74442662820115        2.56512199111950        2.05507844586984
C           -1.97833468580027        1.70170159361739        1.18007085046907
C           -3.09116958119624        1.80719090279979        0.17142494195056
C           -3.85180076550840        0.48874043170971        0.13733809530118
C           -4.71321268554280        0.23494522422180       -1.00771441851029
C           -3.55115574754516       -2.73538375714341       -0.67984923952179
O           -2.77113898136154       -1.87945240634546       -1.08155938334668
C           -5.94682301595630       -0.25572917734077       -0.92055901719076
C           -4.37770501126061       -2.66900281772328        0.50426286660774
O           -5.02278339442563       -3.84886508212746        0.69602949140266
C           -5.91681899535999       -3.98487981092650        1.77499312161892
C           -4.40838387658227       -1.62005992095965        1.38859640088247
C           -3.82870933590808       -0.32370239556461        1.22529960948565
C           -2.39874234079815        2.10015677683639       -1.18589354188275
C           -1.53988613290861        0.94441974740071       -1.70868767027758
C           -0.19909947699416        0.90033415171843       -1.09665192510094
N            0.59606449753033       -0.14522096624522       -1.12096169016647
C            1.93403546151173       -0.07936697455306       -0.58146750621477
C            3.00015393506042       -0.08704840466319       -1.69272202642345
C            4.36682579691106        0.09838783840912       -1.09443661853357
C            4.99487836765467        1.33228370192869       -1.12551942064027
C            6.24953772993995        1.50456127774954       -0.56129675604205
C            6.89782247897439        0.44497310806479        0.05688450696031
O            8.11259735602453        0.49578423469876        0.63176066745709
C            8.84268722169373        1.70061427649162        0.59165435468216
C            6.25493401367832       -0.82406523554574        0.10509729421211
O            6.95066715415483       -1.79480284087251        0.72830167425960
C            6.40552229357596       -3.08988145637910        0.81305436429862
C            5.00393240064051       -0.97326506574295       -0.47190261273989
C            0.22278493892440       -1.37265288883124       -1.77964731425634
C           -4.12622729669570        2.93665274276298        0.47000234973036
C           -4.80321005266651        2.74409121310703        1.82485254094559
C           -3.52994751861181        4.34104293175557        0.40246080515997
H           -4.34140838847848        0.52260141505310       -1.98064168175854
H           -6.39603291326996       -0.50445745580458        0.02618887001456
H           -3.62954320191692       -3.69937049328141       -1.20186292587516
H           -6.55554670405280       -0.40645788756468       -1.79470816904586
H           -6.66140445349564       -3.18359407048805        1.78176274962314
H           -6.41266646160692       -4.94224604720047        1.62573844558898
H           -5.38755991430716       -4.00073738433279        2.73307264604325
H           -4.83216149306858       -1.79925630206140        2.36980328976611
H           -3.36107239792775        0.06159435358702        2.12648745611029
H           -3.16991963842726        2.33822347809620       -1.91773211995515
H           -1.77696844583102        2.98842568480565       -1.06890310175268
H           -2.05939574941103       -0.00561989160123       -1.55886269433761
H           -1.41726295807648        1.05876303681863       -2.79372273817249
H           -1.36543778891772        0.79590328844387        1.03280495174785
H            0.19035059376368        1.79683590908160       -0.63507168993500
H            2.09306460476330       -0.93606879047469        0.07979049487743
H            2.04345655023327        0.83324166895680        0.00796334820036
H            2.78951977518726        0.72417846782511       -2.39118925926709
H            2.95813168628728       -1.03146727973509       -2.23683390384746
H            4.51447083288955        2.17151732032426       -1.60479982850528
H            6.71739239697386        2.47388613019436       -0.61137136483295
H            8.32511410344675        2.50089601377942        1.12924177031554
H            9.03585028984022        2.01660411254937       -0.43776779194129
H            9.78754441410404        1.48590647358975        1.08700808564569
H            7.14861395450265       -3.68567760181008        1.33942300439717
H            5.47015062660758       -3.09474978161408        1.38200188864457
H            6.23433174333089       -3.51952983424858       -0.17874243493715
H            4.51587864471692       -1.93524183093601       -0.45539213431869
H            0.26483075077129       -1.25658334689195       -2.86448155891077
H           -0.79488609213651       -1.66337128902341       -1.51203538069499
H            0.90339332935215       -2.16626591482247       -1.48291383398955
H           -4.89601679782062        2.84968188048183       -0.30729419988811
H           -4.07254689221390        2.82881830468166        2.62390234218632
H           -5.29485266072310        1.77695264946820        1.88881924728546
H           -5.55614701049669        3.51470419356688        1.96676785152457
H           -2.69050137694573        4.42365668504888        1.08574745226433
H           -3.20950575294057        4.60229701442893       -0.60211106745014
H           -4.28649889751768        5.06127197185916        0.70276031412575
H           -0.95111083310393        2.41125172835502        2.67012527320027
