  72
        -99.39092611
 N         -1.1653584645        2.5549264907        2.3118761175
 C         -1.3353008779        1.8617965398        1.2847652990
 C         -2.5919226200        1.8830096291        0.4559045107
 C         -3.2036701938        0.4946723930        0.4167585055
 C         -4.2402808198        0.2200313058       -0.4778768188
 C         -4.8619106080       -1.0175494003       -0.5084643028
 O         -5.8623071163       -1.3672464056       -1.3423254106
 C         -6.3841764052       -0.4119667729       -2.2357220654
 C         -4.4460556193       -2.0317766514        0.3973561031
 O         -5.1170645795       -3.1965980614        0.3099247649
 C         -4.8439022950       -4.2176310512        1.2412627719
 C         -3.4172812037       -1.7515031740        1.2829735672
 C         -2.8044372758       -0.5058751889        1.2901292935
 C         -2.1743193937        2.3585639398       -0.9673454206
 C         -1.6652706175        1.3146577035       -1.9723255833
 C         -0.1731409044        0.9633070993       -1.9235814532
 N          0.2272315988       -0.0262915600       -0.9373628550
 C          1.5705603143        0.0991551143       -0.4157429866
 C          2.6142448243       -0.3526077621       -1.4584738127
 C          4.0133941310       -0.2015849204       -0.9325069531
 C          4.6642539258        1.0202049236       -1.0099421746
 C          5.9655231656        1.1620091692       -0.5553320237
 C          6.6450711646        0.0813078050       -0.0103253988
 O          7.9131760433        0.0959805800        0.4366084219
 C          8.6742932396        1.2756810488        0.3123606598
 C          5.9784135686       -1.1718177419        0.0925780817
 O          6.7077449544       -2.1648386835        0.6362020392
 C          6.1512876570       -3.4538838910        0.7401047468
 C          4.6752206947       -1.2880436003       -0.3664026285
 C         -0.4374209343       -1.1576881017       -0.7694332592
 C         -3.6750121077        2.8539130704        1.0197613110
 C         -4.1616726120        2.4179926485        2.3997731019
 C         -3.2164098776        4.3088317081        1.0745291224
 H         -4.5754320314        0.9934939720       -1.1492051190
 H         -6.7992747363        0.4497725157       -1.7046024074
 H         -7.1815361770       -0.9211119423       -2.7734680164
 H         -5.6269948497       -0.0727294321       -2.9501965351
 H         -5.0092631018       -3.8771253950        2.2676842422
 H         -5.5429983627       -5.0187764806        1.0096117516
 H         -3.8198238939       -4.5905208379        1.1400902903
 H         -3.0908280938       -2.4973496416        1.9891954791
 H         -2.0318043565       -0.3153840581        2.0183931806
 H         -3.0532782572        2.8212335311       -1.4181502410
 H         -1.4257714375        3.1457278584       -0.8589852013
 H         -2.2687377088        0.4113910123       -1.9066587461
 H         -1.8304498978        1.7372565164       -2.9653750425
 H         -0.5664732706        1.1948593987        0.8735742433
 H          0.3996841968        1.8730994883       -1.7256463056
 H          1.6695538076       -0.5179508782        0.4799626912
 H          1.7624574451        1.1402535913       -0.1435302606
 H          2.5031610627        0.2540275907       -2.3584166980
 H          2.4190875395       -1.3945509956       -1.7174687082
 H          4.1651282863        1.8722648870       -1.4460744380
 H          6.4492044470        2.1211607713       -0.6404668982
 H          8.2494953818        2.0915086109        0.9048820922
 H          8.7593559541        1.5879626467       -0.7327713429
 H          9.6617929918        1.0275192829        0.6965057277
 H          6.9291020814       -4.0728385549        1.1829354213
 H          5.2709393150       -3.4598070360        1.3905982520
 H          5.8846428354       -3.8557556478       -0.2422952377
 H          4.1667793640       -2.2375901544       -0.3078334869
 H          0.1113333927        0.5919666841       -2.9140621788
 H         -1.3560286674       -1.3410982799       -1.2878294187
 H         -0.0625372222       -1.8920104517       -0.0833569220
 H         -4.5279277960        2.7933456818        0.3331759537
 H         -3.3494736326        2.4739974468        3.1176930247
 H         -4.5475700747        1.4015019711        2.3792812635
 H         -4.9588325163        3.0789766431        2.7296116069
 H         -2.3630008802        4.4073959575        1.7377991259
 H         -2.9523950579        4.6912124027        0.0923854237
 H         -4.0246016278        4.9221273136        1.4646296537
 H         -0.2695079113        2.4872615204        2.7850147378
