72
 energy: 18.357175890499 xtb: 6.6.1 (8d0f1dd)
N           -2.56866997787975        3.02766921222627        2.73012742406871
C           -2.01693604252095        2.67051357729693        1.61852883267356
C           -2.48158624040915        3.08557006157753        0.36557200873924
C           -3.46467818089908       -0.08303317956364        0.52906586939015
C           -4.42741200064181       -0.44977305384117       -0.41325411401205
C           -5.04655535254595       -1.68006341069071       -0.35261144576176
O           -5.87315522192016       -2.17393694281553       -1.31232661725385
C           -6.26831527639626       -1.34211506891668       -2.38744651402759
C           -4.75046178106732       -2.55996273769795        0.71032514778137
O           -5.34062307045462       -3.78311977415147        0.60052139149186
C           -5.16650254348867       -4.71630913710848        1.62171281981877
C           -3.92300766291196       -2.12263287930619        1.72805527142871
C           -3.31342722137015       -0.87462632595867        1.64783605198345
C           -1.59021537797259        2.83931130046169       -0.81688494632994
C           -1.04885682178161        1.44905600417360       -0.83219257947162
C            0.23898351226286        1.23579752017344       -0.54273413281694
N            0.88436730353594        0.02195365941866       -0.50523614506565
C            2.28674045617015       -0.12266770832421       -0.19477220063155
C            3.15941639291084       -0.36781852550130       -1.45202640232384
C            4.60451023184200       -0.36907637764835       -1.05244382212952
C            5.36901945476183        0.77057275760023       -1.19080041432893
C            6.68246587210193        0.81677435224177       -0.73775514697686
C            7.26044455999604       -0.29124439607866       -0.14593174809053
O            8.54241726580032       -0.36717303879536        0.32077610474664
C            9.35274452853607        0.77655276698711        0.21464225063679
C            6.48155474663509       -1.45927458582737        0.01338150187554
O            7.11382737685499       -2.50763748189290        0.61034959766972
C            6.37931012428604       -3.68472761976571        0.82398878648984
C            5.17156991113156       -1.48244451777220       -0.42999617821457
C            0.13655319425784       -1.16424778561323       -0.83496841556281
C           -3.66844707380467        3.97774383341005        0.18859210199774
C           -4.96262345960033        3.46850286551826        0.89097839077141
C           -3.25857323768348        5.34286908343407        0.75381176078930
H           -4.70520409307128        0.22295541908208       -1.21721996027350
H           -6.81626480699831       -0.44451411554123       -2.07885069956496
H           -6.95444670047546       -1.96748276798147       -2.94082580442461
H           -5.44582127063389       -1.04331374506075       -3.05275467017200
H           -5.50553204964064       -4.31796104063143        2.58314458584283
H           -5.78180443519185       -5.56974526591857        1.31020198754198
H           -4.11300182607843       -5.00987473363987        1.70922038944454
H           -3.68109682340075       -2.77005390420852        2.55768864128112
H           -2.68972950854442       -0.54239618272016        2.46274931376062
H           -2.15316233390026        3.01833862078694       -1.73322172308324
H           -0.73828087732460        3.52730014261682       -0.76565787682285
H           -2.81388604324670        0.78910346714631        0.35313715724080
H           -1.57704155661894        0.72719380073236       -1.44616232373989
H           -1.10440528342594        2.04584166258261        1.63129466470018
H            0.87546385610736        2.08227002467361       -0.34132356258434
H            2.48786289576944       -0.94815114711959        0.51076443261356
H            2.61229797244715        0.79933238022727        0.28450579222080
H            2.95125540717675        0.42302666827545       -2.17617214640592
H            2.89830871266380       -1.33816195709057       -1.89690626504900
H            4.94649736320211        1.64507189360020       -1.66387065540504
H            7.25449619672557        1.72454567991736       -0.86550927650859
H            8.93109754306379        1.63582883076304        0.75011848796899
H            9.51156875479776        1.05059482612270       -0.83393810760046
H           10.30955534793203        0.50571444604353        0.66212619671946
H            7.06226708584874       -4.37577490418186        1.31495219375442
H            5.50819784231177       -3.51505014908900        1.47238154691131
H            6.04940997204346       -4.12198023161445       -0.12285057485341
H            4.57142571933735       -2.37137399404827       -0.31214898559541
H           -0.14800088420863       -1.11820720757072       -1.88431829971921
H           -0.77429663669675       -1.22374823120907       -0.23205765814990
H            0.73346865261498       -2.06084873714792       -0.64624118313394
H           -3.82337816354143        4.06266695636686       -0.88882432015896
H           -4.76322112342373        3.34419812511833        1.94860783009383
H           -5.30322544419762        2.52314813592950        0.47360710782316
H           -5.78251875717624        4.17914178578242        0.82905639956066
H           -3.03225168265829        5.21715638736195        1.80388289565502
H           -2.37505992490392        5.72827356258982        0.25552314496215
H           -4.07652970755822        6.03641788753880        0.62077848936454
H           -1.95644441272518        2.91552590690678        3.53255677368179
