72
 energy: 7.359255815393 xtb: 6.6.1 (8d0f1dd)
N           -2.59002655034789        3.10576290653242        2.67289694655193
C           -1.94771893449411        2.79866128492965        1.58715721403916
C           -2.37130982044836        3.24161649321328        0.32822170947364
C           -3.56012390011290       -0.17319391464701        0.58978912953379
C           -4.45154784798976       -0.56087935716849       -0.40163619003469
C           -5.06167423912737       -1.79394568685620       -0.35980021164099
O           -5.91685778362268       -2.27059940562366       -1.30678361435883
C           -6.28959441847756       -1.44648345833332       -2.38680600075097
C           -4.78081545974975       -2.67497508307429        0.70417333854081
O           -5.38717219966005       -3.89090360902160        0.60354718204893
C           -5.21264760059076       -4.81709846045568        1.63698116993084
C           -3.94243333242825       -2.25759327423261        1.72232755402686
C           -3.32905631103317       -1.01204684125194        1.65498557580636
C           -1.49581318487398        2.95079942415608       -0.86388256220867
C           -0.97721049705663        1.54622586014994       -0.85848716557542
C            0.29314877617884        1.26785718128808       -0.54687386917994
N            0.88335615454809        0.03469187127991       -0.47267754665992
C            2.28706190544188       -0.10603696205458       -0.19082014494806
C            3.15082341449227       -0.31823893690530       -1.44902438097552
C            4.60542526295902       -0.32809905756286       -1.06383068662977
C            5.38565518145311        0.80087645186711       -1.20729334806284
C            6.70499839379145        0.82593748567981       -0.77295647711354
C            7.26975682289429       -0.29039067438175       -0.19083919201009
O            8.54206296969851       -0.38240820827333        0.27489743031128
C            9.37403818890626        0.74813203796938        0.18834031387749
C            6.48015729135516       -1.45482011223845       -0.03519039025539
O            7.10702771637960       -2.50551780249872        0.55718233260769
C            6.38341123990520       -3.69016860586068        0.77452475255847
C            5.17030123280688       -1.45887456028466       -0.46881916839634
C            0.12111299431254       -1.12426985829579       -0.85254005805745
C           -3.57608530166468        4.10886364970784        0.13610431515115
C           -4.88693160873817        3.53873910708198        0.73931822305602
C           -3.25726508811712        5.46659731522789        0.77959750807301
H           -4.69846284185567        0.12848834596901       -1.19551747185588
H           -6.83301741274205       -0.54926558931858       -2.07477279982244
H           -6.96483986002035       -2.08006772554747       -2.94611077663777
H           -5.45365259026870       -1.15419847632557       -3.03612341787741
H           -5.56951035535168       -4.41756300497738        2.59413115785963
H           -5.81319347016350       -5.68077022698196        1.34066742020331
H           -4.16120710561242       -5.11091439243266        1.74153464744541
H           -3.72894097180248       -2.90763590119356        2.55813269452284
H           -2.69791848032080       -0.69128668420508        2.46852213663119
H           -2.05626412668443        3.10825922688035       -1.79057184820194
H           -0.61729254740533        3.60600998538905       -0.88392038506570
H           -3.06555598890973        0.80669910620337        0.50729073218609
H           -1.63860180212133        0.80330826163083       -1.29136917202158
H           -1.01795522201127        2.19794726712552        1.55842002637260
H            0.94361793907424        2.07651260480313       -0.23544364691928
H            2.44456886233091       -0.96108460438759        0.47933026044866
H            2.63808114458463        0.78799133054688        0.33033999859607
H            2.94847045728365        0.48571190979567       -2.15537843251702
H            2.88697398036090       -1.27448839018422       -1.91521688154735
H            4.97011597061984        1.68789660264435       -1.66305080550272
H            7.28608583783403        1.72507571243026       -0.90553170930744
H            8.96182342393782        1.60664887777421        0.73174106902051
H            9.54836988326909        1.02982201307098       -0.85503302284102
H           10.32001838444197        0.45663398455182        0.64358159500823
H            7.07562029490254       -4.37607364587027        1.26153357455786
H            5.51769820731886       -3.52907640646143        1.43047660884991
H            6.04927072924777       -4.12734958016680       -0.17048125028598
H            4.56391967424953       -2.34347163677956       -0.35186767236998
H           -0.19119748427178       -1.07910705613024       -1.90188863664332
H           -0.77742428900834       -1.18688403094775       -0.23003171631308
H            0.72672601294268       -2.02100831999703       -0.70431004564207
H           -3.72301687030775        4.24233490859859       -0.94257631112066
H           -4.75649237029182        3.36918255367787        1.80143202123342
H           -5.16129016473646        2.59509670523180        0.26901234088239
H           -5.71904367260825        4.23876560500508        0.63173959702779
H           -3.08311709717801        5.30746978843142        1.84177570130007
H           -2.35851305798127        5.89761698601052        0.33486517556673
H           -4.08959011407746        6.14755273174732        0.63454611352664
H           -2.12853017041217        2.87570546818261        3.55531083555802
