72
 energy: 26.433480361530 xtb: 6.6.1 (8d0f1dd)
N           -2.52240891343586        3.10481839406070        2.74214012512727
C           -2.04756907482751        2.62039076363603        1.64041396121276
C           -2.52998544839802        3.00994235947897        0.38034734585659
C           -3.45566683679952       -0.02898770982588        0.51247049942942
C           -4.43577200863873       -0.39390960271844       -0.41972531482001
C           -5.04333591674844       -1.62777341557390       -0.35456229465025
O           -5.86244675760685       -2.12598729891510       -1.31584931278584
C           -6.26516726683506       -1.29018536929828       -2.38837076975391
C           -4.73484668109841       -2.50525277887219        0.70828509787382
O           -5.31781711872624       -3.73168017757151        0.59845073677563
C           -5.13949185930279       -4.66774445424999        1.61191373338852
C           -3.90774042784415       -2.06017899221961        1.72171113856426
C           -3.31115973060344       -0.80603838041231        1.64398668108376
C           -1.63732726351133        2.78539820326605       -0.80398400534906
C           -1.06886737449791        1.40402249323466       -0.83057219786843
C            0.22780366054900        1.21767865617302       -0.52929017477551
N            0.87818977125578        0.01282592213850       -0.50356983873043
C            2.27861423171131       -0.12900520495199       -0.20255021445662
C            3.15540334225761       -0.39298861308035       -1.45415949885857
C            4.59484054626436       -0.38382877590599       -1.04128588732843
C            5.35300964994342        0.76026523160056       -1.18059490740144
C            6.66500492770407        0.81515893637311       -0.72272936185679
C            7.24958541957165       -0.28749936264285       -0.12439455780157
O            8.53337962258897       -0.35397740283868        0.34374072521742
C            9.33789944406630        0.79229432081489        0.22462652412534
C            6.47491752097216       -1.45837887606004        0.03734126885891
O            7.11034856751318       -2.50413601279682        0.63732142396790
C            6.37489958060437       -3.68100177715798        0.84867138843908
C            5.16440529218762       -1.48914112819625       -0.40869753849516
C            0.14013944786975       -1.18414482110763       -0.82163992347456
C           -3.70813377231515        3.91217577315225        0.20834977874409
C           -4.97916507844312        3.42601323777545        0.97650207059782
C           -3.26037351742240        5.28485631616144        0.73372806316664
H           -4.71643465971013        0.26835558139475       -1.23326616171724
H           -6.81022433631266       -0.39131206696316       -2.07679441550818
H           -6.95750827834357       -1.91014269625567       -2.94080414348026
H           -5.44613590972824       -0.98889184421107       -3.05712523964829
H           -5.46839885317875       -4.27021074033287        2.57705780964221
H           -5.76071917166996       -5.51757801455858        1.29901086691098
H           -4.08474387846612       -4.96211704747504        1.68971404971117
H           -3.65559138364296       -2.70532608647016        2.54897418751263
H           -2.68449110002851       -0.47024282798134        2.45727261172965
H           -2.21525040156813        2.99114306533485       -1.70534873407407
H           -0.80695299036012        3.49831193248338       -0.70779927728233
H           -2.70070554724646        0.78224129458609        0.29108756949099
H           -1.52162355343783        0.70398255218236       -1.52048096922674
H           -1.15358538227403        1.96688704811404        1.68385343619731
H            0.87143374877936        2.07811949484452       -0.41184975412711
H            2.46748605073632       -0.93667118717050        0.52294285422739
H            2.59998768703064        0.80211687083755        0.26094940732795
H            2.95123207534696        0.39176698638874       -2.18779278828507
H            2.89637611311981       -1.37077080378255       -1.88342925664012
H            4.92730009140044        1.62939976862173       -1.66077554252892
H            7.23321926895624        1.72591889138926       -0.85060465938895
H            8.91358165170912        1.65242437731320        0.75590538124731
H            9.49046515237865        1.06026787594567       -0.82663167522280
H           10.29906561761371        0.52985358545969        0.66893746519075
H            7.05545353739730       -4.37267291153390        1.34152815614452
H            5.50157157725589       -3.50951563901146        1.49410648236169
H            6.04755298682400       -4.11874559685680       -0.09893577459548
H            4.56621371075119       -2.37933427688466       -0.28882294515314
H           -0.12993943768369       -1.15832104499808       -1.87727538325924
H           -0.77895043310492       -1.24274564531672       -0.23076615936724
H            0.73345940366293       -2.07890076588987       -0.60917015826462
H           -3.90339993659165        3.97889654141199       -0.86783127482807
H           -4.70884211896730        3.33362055251857        2.02490584179904
H           -5.34888245402210        2.47485702395333        0.59129811106889
H           -5.79792778744028        4.13711971796166        0.93251055125221
H           -2.98384098012036        5.18180584443480        1.77489480310888
H           -2.40224421367719        5.66301884440691        0.18629530793608
H           -4.08146755183938        5.97722205068844        0.62445988517615
H           -1.86577524490187        2.93901661598927        3.50088100346982
