72
 energy: 3.135739675662 xtb: 6.6.1 (8d0f1dd)
N           -2.53150828341946        3.15786075719784        2.60481701024395
C           -1.86685470424837        2.90220264061638        1.52111748675596
C           -2.26683888278647        3.36383855748302        0.26151080281061
C           -3.69968951442799       -0.23230904592530        0.68262089742060
C           -4.53998045584951       -0.62275297455149       -0.35327285565479
C           -5.10336962845783       -1.88649320601799       -0.36030968264233
O           -5.94417919419648       -2.37419056338781       -1.31643743926556
C           -6.32492391605863       -1.53496296894403       -2.37587683068731
C           -4.81755089480856       -2.78066513551916        0.69683878650348
O           -5.42921602439091       -3.99613557067391        0.60710343468182
C           -5.24925900051912       -4.92147292499549        1.64761890463854
C           -3.97214427569877       -2.38091638612178        1.71630326274052
C           -3.41442866601778       -1.10820354557234        1.70656403197127
C           -1.41252985833796        3.05921469012934       -0.93442986150373
C           -0.90283993321609        1.64782816309168       -0.92996959361465
C            0.35264587823002        1.33537263260872       -0.59299018302602
N            0.88158726768104        0.08148445399709       -0.47490985609996
C            2.27705085054456       -0.09509114690091       -0.19004993014846
C            3.15037599175123       -0.29478766184430       -1.44777382394456
C            4.59938963100164       -0.30182761801275       -1.05873493238470
C            5.38395061741113        0.82441103438657       -1.21249330558476
C            6.70778768369516        0.83405590275328       -0.79261922713923
C            7.26304200769847       -0.28465965170410       -0.19975036473785
O            8.53980755794214       -0.38577991348057        0.26372566891765
C            9.38308890198279        0.73330228545304        0.16740270241575
C            6.47070425566234       -1.44522344761582       -0.04073650131605
O            7.10283362457745       -2.49896397781541        0.54662459580937
C            6.38925297956729       -3.69128355346206        0.74839304564074
C            5.15721863823892       -1.43716277376498       -0.47053680085211
C            0.09995735086498       -1.06615869264268       -0.85532755205812
C           -3.47185579834661        4.23628753047397        0.09026021305133
C           -4.73837936661471        3.58229335388921        0.65326770445639
C           -3.23567697880167        5.58290652601023        0.79065504448389
H           -4.75548373328317        0.07395051634190       -1.14868716513916
H           -6.83753659438588       -0.63563725498615       -2.01809350790392
H           -7.01470127421698       -2.12469671314697       -2.97840006983494
H           -5.46747924069661       -1.24307267087764       -2.99224180266430
H           -5.60776471656586       -4.52996706107466        2.60583129513987
H           -5.84536596704333       -5.78959472574005        1.36919613710265
H           -4.20058468179505       -5.22203932416309        1.74870499848631
H           -3.74630305928253       -3.04913765529796        2.53265525778602
H           -2.76299257294786       -0.80724570798262        2.51274184362993
H           -1.99176058743730        3.23853610837166       -1.84486027762281
H           -0.56223578464413        3.75300842051576       -0.94954284412297
H           -3.28297645854213        0.76328789492481        0.68773223705830
H           -1.63107567981693        0.88492802370919       -1.15208424645205
H           -0.94151775562254        2.31012157404047        1.52814332500105
H            1.05339259716598        2.12683569331455       -0.35650955801621
H            2.39705103885367       -0.96059443683944        0.47057114671797
H            2.63977556126791        0.78526196929319        0.34706467812667
H            2.95190951980976        0.52159486761978       -2.14413238145532
H            2.87734684391835       -1.23418924881971       -1.93211963038714
H            4.97123055153574        1.71164252332397       -1.66919890784225
H            7.29507866682600        1.72739862472332       -0.93490412409000
H            8.97860621159259        1.59459232989706        0.70986332545150
H            9.56678009931813        1.01482736502919       -0.87511848707715
H           10.32198009204609        0.42836760256990        0.62742499466937
H            7.09212680175705       -4.37177360563473        1.22694328043639
H            5.52707191034088       -3.54225534597540        1.40755717741118
H            6.05222316899334       -4.12833894686490       -0.19776822527935
H            4.54418279489957       -2.31833376348113       -0.35799799443806
H           -0.21501745785818       -1.00929921146252       -1.90259968132548
H           -0.79616933824337       -1.13816506554596       -0.23186985818169
H            0.69259300733348       -1.96773125730897       -0.71905059077953
H           -3.62205967806366        4.42856060251655       -0.97951193061574
H           -4.60044266784236        3.39150378190309        1.71276774364066
H           -4.94304068309733        2.64057002800717        0.14906183305128
H           -5.58997031625766        4.24427663751652        0.51395353109177
H           -3.08659536378781        5.41311539306103        1.85257639324084
H           -2.35715813383450        6.07913535645949        0.38282019154491
H           -4.09823972582475        6.22992164394096        0.64985101019324
H           -2.11044606243534        2.78790810595962        3.45311235970636
