72
 energy: 9.301028697477 xtb: 6.6.1 (8d0f1dd)
N           -1.76688253202046        2.92800168758264        2.41378546231002
C           -1.74064818197993        2.21079303313296        1.38633857737932
C           -2.86594001618904        2.16914673950269        0.38132569059522
C           -3.51323444755588        0.65987938400501        0.48349057935728
C           -4.40129160700498        0.12822861555290       -0.47198133217711
C           -4.91111200767675       -1.16352810692998       -0.43781497412532
O           -5.80333500003847       -1.66961985531574       -1.34408378978577
C           -6.34093668780030       -0.81548862942028       -2.33057277897632
C           -4.52896076126721       -2.05755549276841        0.57997243634541
O           -5.09839251029356       -3.29783336802184        0.50362741279528
C           -4.81510523453430       -4.25753996033269        1.48423220327661
C           -3.62119932696834       -1.57762660773197        1.50719681503262
C           -3.12387691991572       -0.26711956310700        1.44884929620701
C           -2.08753159269246        2.39734273406152       -0.95228685178125
C           -1.22442712937679        1.20957805083732       -1.36290012148015
C            0.16886754226456        1.17788722625538       -0.83457111270744
N            0.72003043002240       -0.06115289181319       -0.49482904581171
C            2.09641387622438       -0.09404707067883       -0.16726839488481
C            3.01189278603776       -0.52241280529337       -1.34015629912481
C            4.43687702154046       -0.42850774854938       -0.90364691862594
C            5.16453455006266        0.73326360422791       -1.08377655208245
C            6.47416456446064        0.83228056170344       -0.62589437357507
C            7.08350117063364       -0.23291040905612        0.01764426182419
O            8.36485293092006       -0.24800270443163        0.49556187575739
C            9.15733602975852        0.89393911284827        0.29524848711165
C            6.34296180398256       -1.41874937706163        0.21968985240043
O            7.00993266288654       -2.42214159348795        0.86776988506737
C            6.33362899515502       -3.63534807403835        1.06545653563999
C            5.03637344964128       -1.49498663874090       -0.23333542867292
C            0.02555182783013       -1.30535552362114       -0.67183086398386
C           -3.91397968131768        3.30112728348939        0.44584830329937
C           -4.74528280919623        2.98100741713918        1.68564102021175
C           -3.35471270998584        4.73338334997654        0.57390981171575
H           -4.69878247426770        0.74909423572761       -1.30375672866259
H           -6.82787501721475        0.06449780183304       -1.89700971568869
H           -7.09462232804691       -1.40256754327406       -2.85502648507189
H           -5.57934067234256       -0.48428148226651       -3.04664988678846
H           -5.06555094156584       -3.88473273723710        2.48026698141552
H           -5.43853791388313       -5.12322964326306        1.24109726303748
H           -3.75937175302738       -4.55552954660756        1.47391813385802
H           -3.28390218183971       -2.24177255964188        2.29119416116608
H           -2.38983082915244        0.00092575888929        2.18917852307112
H           -2.82781944313704        2.61396192982299       -1.73881021012035
H           -1.44361166958448        3.27374674657880       -0.86733844251855
H           -1.76780744905181        0.35921883025423       -0.94685060745950
H           -1.27287885673386        1.20185691761632       -2.45617254524777
H           -0.83812660733666        1.66079549864951        1.04684419449848
H            0.90613328967221        1.90254332828394       -1.16729337620179
H            2.24184711149110       -0.75874625729139        0.69322383177334
H            2.37014143855825        0.91352588738894        0.13736502364163
H            2.81916826587844        0.15461041124661       -2.18037066295863
H            2.76155294692959       -1.54494868577686       -1.63474637164074
H            4.71909086586594        1.57653192834353       -1.59115159908681
H            7.01880068793015        1.75005682047267       -0.79331286085385
H            8.73052577719095        1.76826983268578        0.79579089268467
H            9.28837466518691        1.11651733225888       -0.77089451459546
H           10.12981088105240        0.66894655365768        0.73337264209920
H            7.04325059898559       -4.29277305573152        1.56672278923916
H            5.45019434314229       -3.50413773968673        1.70415666918374
H            6.02729997272406       -4.09341042079686        0.11834987497546
H            4.45924741841952       -2.39463698758030       -0.08708746586266
H           -0.16023762046845       -1.51221404000427       -1.73930001272802
H           -0.93292942318810       -1.27299414417102       -0.14270245851791
H            0.60946018424517       -2.12411082094113       -0.24252347630038
H           -4.51647664663578        3.25542327501065       -0.47506791837047
H           -4.05830306460533        3.02929234177381        2.53506981863071
H           -5.16086082787641        1.98005710534089        1.59713735055055
H           -5.55725330765374        3.68419590417262        1.81345310703339
H           -2.72491963014392        4.79530187569933        1.45350882331816
H           -2.78535924091240        5.05715916186186       -0.29399203345120
H           -4.19491401554715        5.41131108530525        0.70310412965747
H           -0.93722982850965        2.88295868245862        2.99180302221579
