72
 energy: 4.537961094824 xtb: 6.6.1 (8d0f1dd)
N           -2.55331620642903        3.16752003174422        2.65407427281216
C           -1.90898002724446        2.87340219455945        1.56648094732218
C           -2.31475569844312        3.32189417145747        0.30191143218458
C           -3.63029365072024       -0.21365640619789        0.62632005934839
C           -4.49359328359450       -0.60229056407905       -0.38716351679437
C           -5.08494658360909       -1.84574784229851       -0.36142479443646
O           -5.93853940715890       -2.32501056772589       -1.30680216338627
C           -6.30596957331993       -1.49516720505552       -2.38154911867876
C           -4.80213905544963       -2.72895093227888        0.70261102626402
O           -5.41156458800671       -3.94417473465556        0.60799756889909
C           -5.23135309635355       -4.86901860995432        1.64442134326463
C           -3.95800171368663       -2.32193139263060        1.72007995731620
C           -3.36410410373360       -1.06694571398246        1.67366116732954
C           -1.44872148508747        3.00805324823180       -0.89232026138959
C           -0.93591375732338        1.60170347939401       -0.88911998333197
C            0.32330013271411        1.30121836915575       -0.56312238446386
N            0.87653061261984        0.05740068629359       -0.48872882548990
C            2.27358090978348       -0.09892124055544       -0.19617953637872
C            3.15595572280137       -0.29950330363400       -1.44769458765896
C            4.60465942470840       -0.30684044470342       -1.05770294684279
C            5.38802440210701        0.81877326730426       -1.21158749433523
C            6.71076311315390        0.82998299911938       -0.78959451416257
C            7.26672678995710       -0.28721890010810       -0.19908271120194
O            8.54525169129507       -0.38654290909197        0.26519071665823
C            9.38484305498837        0.73754452291191        0.17341985214432
C            6.47569213387540       -1.44847320778334       -0.04369301985078
O            7.10713373132595       -2.50521015283343        0.54005003487370
C            6.38672710587024       -3.69352810666102        0.75143230575104
C            5.16423741803746       -1.44381300061492       -0.47341287319221
C            0.10393212043026       -1.09820761027633       -0.86082933308768
C           -3.52871486534828        4.18073557598578        0.11072167740901
C           -4.81721643579486        3.56447839984646        0.69224489194840
C           -3.25456839194182        5.53153584002773        0.78831659972219
H           -4.71402705825763        0.08435478097722       -1.18718820371927
H           -6.83662310162357       -0.59591183458579       -2.05095920389410
H           -6.98145387028387       -2.11685470929834       -2.95957116503011
H           -5.45776056638508       -1.20218923669864       -3.01306868311364
H           -5.58922705019194       -4.47398920573442        2.60167329399838
H           -5.82792547891647       -5.73582802348652        1.35897938494183
H           -4.18067010715868       -5.16515348013224        1.74699649975880
H           -3.74889900079419       -2.97800125554378        2.55145934848611
H           -2.71002135741505       -0.76355320395296        2.47710780216623
H           -2.02121952569339        3.17431472648989       -1.80813728318846
H           -0.57798905160662        3.67178923437270       -0.93221909743504
H           -3.16479046240441        0.75512461392222        0.55994693847344
H           -1.62530309262999        0.86353154142804       -1.25897177730235
H           -0.98544785372940        2.27928584337689        1.57126603724620
H            0.99744549260427        2.10265078631653       -0.26824795943312
H            2.41039805510128       -0.96164298555110        0.46612901003564
H            2.62393398738461        0.78885070871733        0.33984946307430
H            2.95687223518465        0.51365345197888       -2.14597783702071
H            2.88669754222936       -1.24472768702779       -1.92796223862217
H            4.98104557581588        1.70811570956624       -1.67011286992612
H            7.29744775398002        1.72331618002856       -0.92928225688621
H            8.97748682592740        1.59619068807014        0.71897033160952
H            9.56496068624889        1.01970025885677       -0.86858742184235
H           10.32474904180294        0.43477462403103        0.63218856859823
H            7.08422046447593       -4.37519638209512        1.23649142079013
H            5.52405103951939       -3.53611623120754        1.41059615241394
H            6.05092931150518       -4.13193248027799       -0.19300588359078
H            4.55587643242464       -2.32795975834547       -0.36735258192461
H           -0.21623973519946       -1.05310791640621       -1.90715720808423
H           -0.79004236002711       -1.16393376897434       -0.23311483453042
H            0.70182827792549       -1.99967984393205       -0.72055166237128
H           -3.68522246243039        4.34234380598585       -0.96597622113241
H           -4.67884563016084        3.38212631648794        1.75297735029284
H           -5.05377950980841        2.61918258809927        0.20248521720497
H           -5.66267446484066        4.24680737861437        0.55527158812049
H           -3.09711390665997        5.36329277049632        1.85137197777051
H           -2.36011742631439        5.98967488415750        0.36394379781112
H           -4.09622511464706        6.20374558160692        0.64339073031907
H           -2.12711772194427        2.79862309296532        3.50932719344507
