72
 energy: 45.122176526087 xtb: 6.6.1 (8d0f1dd)
N           -2.00942992304584        3.03310522352376        2.54932469334814
C           -1.88851910232746        2.29237306568793        1.54517776939747
C           -2.84124592381936        2.34920277865233        0.40721185694677
C           -3.55994676505050        0.50719694105688        0.51969368615323
C           -4.42617119520568       -0.02126662246660       -0.44482327336777
C           -4.94000802868854       -1.30886983336126       -0.39988632965126
O           -5.79996378601708       -1.81622377376682       -1.33168687682432
C           -6.29859309977030       -0.97197525649149       -2.35790231054432
C           -4.60573691830395       -2.18016145533028        0.65244476519418
O           -5.18048572729264       -3.41645236926799        0.56469005980988
C           -4.93390166191519       -4.38057717417582        1.54200044019735
C           -3.75306813791319       -1.67257038100458        1.61534298626215
C           -3.25664421117469       -0.35843128574190        1.55721635471816
C           -1.96140283922925        2.49985200930655       -0.81795967745948
C           -1.19859574248632        1.21647864418153       -1.09515784298673
C            0.23085161545490        1.18609837259677       -0.68151253890220
N            0.79513824493172       -0.06908848920023       -0.43236526680710
C            2.17807486270982       -0.12745274039640       -0.18105894861740
C            3.07160992107252       -0.49341056135253       -1.39331518425566
C            4.49585364898382       -0.41953063782502       -0.95377954994011
C            5.23105764290722        0.73930191212849       -1.11646957435719
C            6.54051881788175        0.82474789819412       -0.65399245081146
C            7.14545695719188       -0.25198453742151       -0.02432725673416
O            8.43061168893244       -0.28010343918200        0.45170829538650
C            9.22330382044899        0.86536882477127        0.27339167168443
C            6.39416125522562       -1.43400839189658        0.16240913685841
O            7.05204558794547       -2.45547438751554        0.79050008874950
C            6.34715615578785       -3.65196751081544        0.99314845456904
C            5.08557453160663       -1.49524028486697       -0.29002248645252
C            0.08914377908124       -1.29065083385497       -0.72144969505836
C           -3.89166495526560        3.47482677845383        0.35447935468294
C           -4.90941175090429        3.12782377455538        1.46765456756746
C           -3.31484676488267        4.89751663092003        0.60960689286110
H           -4.71537239084472        0.58920156476326       -1.29144246491928
H           -6.81337126412993       -0.08227214391271       -1.97630078539143
H           -7.03148098697056       -1.56964081478887       -2.89526313677003
H           -5.51657808017302       -0.65008801124857       -3.05670754010923
H           -5.20755080215772       -4.00772227248584        2.53097510208867
H           -5.56150449513214       -5.23542128921617        1.25816706915862
H           -3.87576387425042       -4.67775960655786        1.56206413434453
H           -3.45059243979080       -2.31332118263488        2.43001961224026
H           -2.56827378947953       -0.05567213906429        2.33419902516030
H           -2.62821800903892        2.77350014895573       -1.65294329320430
H           -1.26668694655602        3.31452523714405       -0.63526781359658
H           -1.79311616949086        0.51625318097083       -0.46295588397771
H           -1.33077025492272        1.01650653578711       -2.16254499205283
H           -0.97434952380276        1.68467080595537        1.35227982601910
H            0.94432442107879        1.94335924235271       -0.99556538251731
H            2.33716865156090       -0.83202445354809        0.64232415492197
H            2.45836935095138        0.86227993941777        0.17243338607131
H            2.88096529414476        0.22471272414041       -2.19978939221176
H            2.81725182103616       -1.50211241693108       -1.72991238482276
H            4.79143845086059        1.58935678695774       -1.61767335496619
H            7.09269967429754        1.74177865296203       -0.80516109874036
H            8.79510449035877        1.73437499914789        0.78322290800600
H            9.35735412473476        1.10147979637662       -0.78897694599400
H           10.19672942856878        0.63444002289985        0.70998233322087
H            7.03924484943369       -4.32779216961448        1.49322234329049
H            5.46591489504381       -3.50108583713027        1.63201889800735
H            6.03410197875738       -4.10073078382419        0.04481251545194
H            4.50006580777559       -2.39115127642838       -0.15339829226906
H           -0.11664358059541       -1.39649533591267       -1.79868524922296
H           -0.86577215963457       -1.29418823069269       -0.18207593821205
H            0.66683284003329       -2.15173065131195       -0.37582970623899
H           -4.34673163348756        3.47876280893916       -0.65707897696784
H           -4.35090031713074        3.13271007585927        2.40871662006350
H           -5.36501337311458        2.15138283186800        1.29732552844846
H           -5.71077106603449        3.84719884956105        1.53388523337105
H           -2.81327316925513        4.91918889677601        1.57054199386642
H           -2.62392460885679        5.24359752992162       -0.16155202270828
H           -4.15500728901547        5.58637931435683        0.63445940377826
H           -1.23149383544214        2.95784546840700        3.18871079039867
