72
 energy: 11.972252371409 xtb: 6.6.1 (8d0f1dd)
N           -2.59653468356854        3.03696006136742        2.70284331305196
C           -1.98686188891606        2.73317016283707        1.60255077756087
C           -2.42760471809932        3.16117449355925        0.34831031890249
C           -3.52255354020959       -0.13082649872616        0.56514763791105
C           -4.43974773358646       -0.50786460263377       -0.40715301001403
C           -5.05684695902612       -1.73758946579133       -0.35332447511437
O           -5.89443074359221       -2.22359457672275       -1.31000316274673
C           -6.27817927476864       -1.39498278223921       -2.38731343218351
C           -4.76819982703368       -2.61735991551584        0.71006614318096
O           -5.36535120583715       -3.83714866271147        0.60209218090500
C           -5.19186606691685       -4.76581832269156        1.63099816954165
C           -3.93768353570761       -2.19044401215505        1.73098684488176
C           -3.31948766789042       -0.94703971165430        1.65304172225829
C           -1.54101816548311        2.89094840447930       -0.83730892656451
C           -1.01812495972691        1.49284184051910       -0.84202138717202
C            0.26288302130904        1.24955344884292       -0.54617724981565
N            0.88817157625552        0.02415423928780       -0.47859963494065
C            2.29448999924789       -0.11295531959091       -0.18952439773882
C            3.15657993622487       -0.34265931198594       -1.45019378055926
C            4.60790908460234       -0.35012917353592       -1.06133616353136
C            5.38007255092983        0.78417945602743       -1.20054134910644
C            6.69583778680629        0.82085116329132       -0.75501112655977
C            7.26604873870297       -0.29184442729480       -0.16896992501599
O            8.54372009380238       -0.37589810119863        0.29705565491764
C            9.36430419521620        0.76151790883337        0.20268124623150
C            6.48256383028594       -1.45711780002734       -0.01126748722036
O            7.11179203753517       -2.50725956175565        0.58326331033126
C            6.38163693513451       -3.68708969668520        0.79898716778633
C            5.17356981377355       -1.47231292396369       -0.45152868313857
C            0.13144195313507       -1.14353951792265       -0.83922861042310
C           -3.62129822470704        4.04178472744710        0.16524917654717
C           -4.93497502489453        3.50713643325056        0.80679866450166
C           -3.25882083447984        5.40377183552705        0.76911507104186
H           -4.69798171710370        0.17693577403755       -1.20431658844142
H           -6.82536041656707       -0.49796943905795       -2.07837325027649
H           -6.95795675588119       -2.02490165320505       -2.94297114314651
H           -5.44879940737933       -1.09968314828056       -3.04479727397517
H           -5.54124260851997       -4.36678768878101        2.58956533133362
H           -5.79734435196980       -5.62557836316559        1.32554607863245
H           -4.13965077434250       -5.05809461763969        1.72835359798947
H           -3.70689490434484       -2.83929242819361        2.56310083990757
H           -2.69205796637030       -0.61737175077266        2.46520859127849
H           -2.08991253021424        3.05057153481563       -1.76474763954175
H           -0.67288496141103        3.55861789134799       -0.82290904045952
H           -2.94190122138807        0.77329616456052        0.41375098154411
H           -1.61733090864553        0.74394769322233       -1.36387237598087
H           -1.06021529468330        2.12361973106936        1.58126613753777
H            0.90259793593695        2.07401322799165       -0.27715734057288
H            2.47092751630073       -0.95415081863248        0.49792599261766
H            2.62432159858924        0.79738631819757        0.31009566486076
H            2.94684364958228        0.45436731423591       -2.16419061135008
H            2.89296568004112       -1.30592654940985       -1.90633460170535
H            4.96089340862353        1.66524494958038       -1.66425244081648
H            7.27265909773694        1.72477275631987       -0.88350131738466
H            8.94689593729902        1.62036759029690        0.74224938536607
H            9.53080224042536        1.04037055351004       -0.84323014469326
H           10.31622583074386        0.48098075171700        0.65397963100657
H            7.06799093989168       -4.37693043004728        1.28809329160944
H            5.51298456651441       -3.52109316091236        1.45092513296750
H            6.04936609491826       -4.12437570067913       -0.14686739084646
H            4.57152451406227       -2.35983183545486       -0.33489082226973
H           -0.16633262027639       -1.08268192177964       -1.88670391123031
H           -0.77392860836104       -1.20602968901578       -0.22775518433186
H            0.73166082545411       -2.04209776297971       -0.67812233279353
H           -3.75250330199113        4.14974748201792       -0.91084210023867
H           -4.80012208217152        3.35536891626812        1.86905088032617
H           -5.24584116532802        2.56640979683770        0.36019547928818
H           -5.75662188666648        4.21586117007354        0.72346470543760
H           -3.07272278765316        5.25841184125334        1.82610526726056
H           -2.35931111209588        5.80718292550520        0.31019759002547
H           -4.07946904675717        6.09410095471177        0.62288279410492
H           -2.05576728387536        2.90884863464752        3.55906321874246
