72
 energy: 38.201151966095 xtb: 6.6.1 (8d0f1dd)
N           -2.44288601268764        3.11771502583705        2.74138915737727
C           -2.05524023298170        2.55154460080879        1.65104241704879
C           -2.57473000832055        2.92828080458386        0.39529901780071
C           -3.46093005630946        0.02207456397243        0.50147669409998
C           -4.44138233786088       -0.33899463594856       -0.42942726765073
C           -5.03514965686695       -1.57733944861425       -0.35868153577303
O           -5.85416050321640       -2.07750965104113       -1.31851026655184
C           -6.26549842721622       -1.23774080190765       -2.38659934980612
C           -4.71776331035392       -2.45191702364899        0.70308650364313
O           -5.29655981158049       -3.68029736424732        0.59370566281633
C           -5.11072482145775       -4.61920703550869        1.60041966074876
C           -3.89190384952334       -2.00072612062354        1.71375869426440
C           -3.30730178548664       -0.74230984410064        1.63620459730831
C           -1.68373046499894        2.73672429640991       -0.79124904041060
C           -1.09209330289849        1.36056291317297       -0.83533961038111
C            0.22061767583825        1.19212041992204       -0.52856849157660
N            0.86869807761442       -0.00678300318349       -0.48004901821686
C            2.26876583135349       -0.13515418815586       -0.20608778316778
C            3.14703009371450       -0.41620243001274       -1.45254184155725
C            4.58206727791132       -0.39274022477692       -1.02809586552183
C            5.33502569750916        0.75497495689817       -1.16975579499525
C            6.64624499724854        0.81547649131775       -0.70929785066830
C            7.23586977760499       -0.28226840092649       -0.10457354568580
O            8.52059375793169       -0.34051838121176        0.36529790392236
C            9.32175496735402        0.80674280733671        0.23412159626027
C            6.46510484028014       -1.45568702144092        0.06013162062279
O            7.10384255213993       -2.49835517473237        0.66355238351150
C            6.37000603997509       -3.67664412761560        0.87301927466916
C            5.15435456405562       -1.49137516290285       -0.38811092460392
C            0.14189848632331       -1.20761272484621       -0.80292136174954
C           -3.74363296299285        3.84239787015398        0.23134274503008
C           -4.99041034403630        3.37976612311818        1.06120384364401
C           -3.26215391502198        5.22418274763649        0.71317269136021
H           -4.71771181488107        0.31813125271285       -1.24729524616593
H           -6.80696541304805       -0.33852101943558       -2.06870466704965
H           -6.96375406421601       -1.85301173178175       -2.93835846410355
H           -5.45050083021189       -0.93303556542235       -3.05868027846668
H           -5.43044016300535       -4.22431950466602        2.57033853331244
H           -5.73437367509262       -5.46698604135560        1.28652537134113
H           -4.05441799147640       -4.91253796211223        1.67170822244489
H           -3.62830899912189       -2.64286048046595        2.53790722668907
H           -2.67307242609543       -0.39986742124912        2.44101683596430
H           -2.27927665933380        2.96649026880998       -1.67743444781465
H           -0.87647486183504        3.47024530184021       -0.66095268046043
H           -2.59309268323460        0.77597083114020        0.23498035386284
H           -1.48975900808082        0.72611327874267       -1.61440720078316
H           -1.17514690943215        1.87061711045283        1.69821903813729
H            0.87686073924268        2.05928151939963       -0.48133732278894
H            2.44757659061282       -0.92363088864664        0.53979983861846
H            2.58372894725300        0.80656843778896        0.24005856254322
H            2.94749879300796        0.36094826294619       -2.19714699560887
H            2.88986190479189       -1.40041700320974       -1.86508306081364
H            4.90657468149940        1.61844954392190       -1.65656138109523
H            7.21143514034159        1.72810591656060       -0.83817015941048
H            8.89573351619092        1.66797630023504        0.76139470892760
H            9.46951340564641        1.06866152986215       -0.81945019174973
H           10.28642632333462        0.55175484438478        0.67604884655328
H            7.04954243881610       -4.36782488116719        1.36772672091233
H            5.49487355420699       -3.50514067798652        1.51600185553146
H            6.04546829067043       -4.11538503923960       -0.07522500662332
H            4.55738968782210       -2.38228422285358       -0.26634923373145
H           -0.11456779241115       -1.20127754000568       -1.86592922610187
H           -0.78575033080796       -1.26415574017113       -0.22587681225192
H            0.73276694374885       -2.09936164589994       -0.57098678624603
H           -3.98472679579276        3.89529708594926       -0.84281383894599
H           -4.67497161274787        3.30716250603704        2.10215045941428
H           -5.38998041396430        2.42604196345313        0.70813815766782
H           -5.80644744681701        4.09338904182644        1.03511656236678
H           -2.93250945267371        5.14418462731963        1.74314828310245
H           -2.43448451235161        5.59895447943031        0.11349995779006
H           -4.08848317834597        5.91452527790587        0.63407708802112
H           -1.75920557731965        2.95446901195330        3.47189864534480
