72
 energy: 18.078809838702 xtb: 6.6.1 (8d0f1dd)
N           -1.84648330727819        2.96555246122985        2.45749016490080
C           -1.79000124931184        2.23678547825938        1.44002109086548
C           -2.86787955886615        2.21457692111961        0.38928709858860
C           -3.52925596986022        0.62744479444285        0.49612840191111
C           -4.41072613599181        0.08455421539951       -0.45943957008594
C           -4.92128668449218       -1.20686357371387       -0.42118088456948
O           -5.80036650684264       -1.71660792802215       -1.33814861727942
C           -6.32643145989032       -0.86801600831875       -2.33991040939797
C           -4.55730805232907       -2.09040652111646        0.61180488926516
O           -5.12592527915073       -3.33136180971979        0.52977166561814
C           -4.85425218114768       -4.29679190498254        1.50545216466158
C           -3.67035156956981       -1.59287189598495        1.55096254438571
C           -3.17483008479135       -0.27848986474334        1.49173951354463
C           -2.04719146622908        2.43000955465591       -0.90429155760630
C           -1.21153207052541        1.21205004873506       -1.27322883411488
C            0.20198815848394        1.18256372936909       -0.79736535838986
N            0.74672538309296       -0.06568197239355       -0.47623405752205
C            2.12453618205150       -0.10725372706230       -0.17179391101810
C            3.03263735568028       -0.51425089491650       -1.35819581053148
C            4.45711701982583       -0.42611718456942       -0.92070020495990
C            5.18706430854488        0.73483473457996       -1.09488206617633
C            6.49648639561715        0.82967289938253       -0.63462717793138
C            7.10460106031539       -0.23922461911555        0.00446508342268
O            8.38720699682669       -0.25832462493545        0.48215435857005
C            9.17960470217456        0.88478792042080        0.28820750978682
C            6.36059170756306       -1.42384214734459        0.20129861690317
O            7.02445542227759       -2.43326580973329        0.84340645398788
C            6.33824398415042       -3.64088005688168        1.04186840103300
C            5.05342542367059       -1.49528112454686       -0.25213400945665
C            0.04754643329866       -1.30255161546023       -0.69029441690685
C           -3.91379815771414        3.35627928471331        0.41235354406369
C           -4.80578230631523        3.02907064130217        1.61404835240883
C           -3.34154266051612        4.78598093336561        0.58110672937997
H           -4.70495264359092        0.69658712135523       -1.30032016969321
H           -6.82372804305725        0.01525179314839       -1.92440742564398
H           -7.07303756153023       -1.45916662340005       -2.86895252529009
H           -5.55825047681716       -0.53970790945471       -3.05045486536947
H           -5.11247100777104       -3.92585646804337        2.49932805031753
H           -5.47864217211069       -5.15975635167674        1.24787149029174
H           -3.79755589544804       -4.59430734102388        1.50415723115506
H           -3.34186121728410       -2.24935291752342        2.34565606897732
H           -2.45198380583681       -0.00710055339865        2.24444878606807
H           -2.76216715889537        2.66804628646322       -1.70840737646022
H           -1.38721401745348        3.28756999011072       -0.78532456647187
H           -1.76799361582192        0.40468714308069       -0.77983556847944
H           -1.29617609045923        1.14111639063932       -2.36127764475064
H           -0.88148942401836        1.66738114945603        1.15078878799599
H            0.94045623305124        1.89226730420241       -1.16909528120673
H            2.27375568464388       -0.78379342308888        0.67799760015750
H            2.39789143393658        0.89554016488442        0.14810943985136
H            2.83963982219762        0.17720354417449       -2.18702863606375
H            2.78099888531382       -1.53239241199436       -1.66694066502361
H            4.74360804806210        1.58032227510609       -1.60036669094811
H            7.04347559189792        1.74735414277683       -0.79675532147267
H            8.75197142006070        1.75736096907405        0.79139092449834
H            9.31129925551140        1.11144476442969       -0.77690955955198
H           10.15271771891654        0.65871539182024        0.72563567066704
H            7.04158879981843       -4.30496468066495        1.54289936037993
H            5.45516998426601       -3.50297863454255        1.68023239725697
H            6.02969987784940       -4.09560815514521        0.09416016949879
H            4.47340855175055       -2.39364164024164       -0.10919041120850
H           -0.14368986860496       -1.47283478130158       -1.76262589475406
H           -0.90947393405978       -1.28142916188688       -0.15635241709247
H            0.62859450412206       -2.13786470077653       -0.28973362307957
H           -4.46381216302058        3.32868105210424       -0.54358207519191
H           -4.15634395678039        3.06228106418057        2.49369505745810
H           -5.23796583883872        2.03657681810424        1.50008332916198
H           -5.61316068534058        3.73870932142929        1.72342121870012
H           -2.75764991214799        4.83627351523303        1.49352065464862
H           -2.72582681889721        5.11697009725454       -0.25404496534530
H           -4.18239959659299        5.46869593583631        0.67153693926409
H           -1.03437586067582        2.91023693149781        3.05775235748499
