72
 energy: 52.786705636164 xtb: 6.6.1 (8d0f1dd)
N           -2.35694799521619        3.11657984345098        2.72555011137812
C           -2.05055265213010        2.48089109095859        1.65556762741066
C           -2.61768670689953        2.84212231050252        0.40824424083684
C           -3.45347089520402        0.09218885036726        0.48848226796658
C           -4.43541223922340       -0.27945575603782       -0.43766301585242
C           -5.01810495648744       -1.52309842989176       -0.36505583044158
O           -5.84268471105704       -2.02518912163296       -1.32049361667843
C           -6.26825173574209       -1.18416702769998       -2.38400523174136
C           -4.69779297511623       -2.39682278767092        0.69450130752624
O           -5.27513457519196       -3.62654888229002        0.58832871736617
C           -5.07984646988067       -4.56847357308226        1.58943111875603
C           -3.87214981139711       -1.93556143302864        1.69992122120769
C           -3.29912324586364       -0.67221248835433        1.62160051180012
C           -1.72884543388343        2.68982141372758       -0.78152688961191
C           -1.09857973407171        1.32838726408614       -0.87255207055257
C            0.22486944109177        1.16991162005101       -0.54920605563859
N            0.85741878935658       -0.02764414164997       -0.44618126803846
C            2.25718518575007       -0.13932463007330       -0.20482631891475
C            3.13550472766659       -0.43708169348010       -1.44682217085663
C            4.56737540599520       -0.40002260100183       -1.01417911999864
C            5.31546342084812        0.75071427913215       -1.15938744463774
C            6.62638282219929        0.81625273332419       -0.69724808029869
C            7.22070655889302       -0.27647913881022       -0.08635369920540
O            8.50606233671572       -0.32671945246333        0.38523838944356
C            9.30435792448349        0.82126597836265        0.24249670143671
C            6.45400506546527       -1.45240679199725        0.08181064562739
O            7.09646647704696       -2.49139999080373        0.68922139387929
C            6.36549877590909       -3.67188366650698        0.89714416938056
C            5.14314093496753       -1.49305743174469       -0.36802712043258
C            0.14004855851400       -1.22998764609738       -0.78242411979822
C           -3.77396462605888        3.77297021503146        0.25346973467993
C           -4.99153805768135        3.33080619736394        1.14556675154828
C           -3.26754792423830        5.16517279934022        0.69185593878836
H           -4.71440881052393        0.36973980410614       -1.26259366962195
H           -6.80584027350516       -0.28539781253166       -2.05722832528595
H           -6.97282397899829       -1.79565396210003       -2.93385952697248
H           -5.45830959236712       -0.87612437787172       -3.06050926294387
H           -5.38979888245537       -4.17745961417810        2.56377227492419
H           -5.70569510511566       -5.41564586031355        1.27674885549851
H           -4.02215922343164       -4.86233499529594        1.65318871568728
H           -3.60027470433480       -2.57601345317521        2.52139153075170
H           -2.65969586063975       -0.32681005965709        2.42114035691625
H           -2.34611369548483        2.93505857792597       -1.65125164450045
H           -0.94833028137969        3.44088146335753       -0.61599059534125
H           -2.46244955316852        0.78088583748094        0.17632326750570
H           -1.45929128691123        0.75683496138086       -1.71309815842899
H           -1.16448160857333        1.78455180375766        1.67367491375699
H            0.89043346288954        2.03643025794713       -0.56022997735258
H            2.43073715416963       -0.90926950793490        0.55793218504829
H            2.56500092715176        0.81338639291381        0.22270742871235
H            2.94125462169757        0.32973530172810       -2.20488966944744
H            2.87907666445870       -1.42635540675935       -1.84331886309877
H            4.88475838173676        1.61119330043030       -1.64996974082373
H            7.18876789602419        1.73085079055007       -0.82649973185900
H            8.87718410274566        1.68359913402413        0.76601394841068
H            9.44796884327738        1.07720919717275       -0.81324051076140
H           10.27231018798286        0.57339013666624        0.68225728816444
H            7.04472521557498       -4.36209439313328        1.39363400396498
H            5.48867297854963       -3.50111532217472        1.53829909619020
H            6.04360041150007       -4.11158281067781       -0.05154066586595
H            4.54817081961770       -2.38492431749125       -0.24383861495199
H           -0.10374029527851       -1.23949868546911       -1.85195358841050
H           -0.79514224583945       -1.28243634154073       -0.21687247182800
H            0.72850284130965       -2.11826078381690       -0.53158193186876
H           -4.05973851254304        3.81268488439424       -0.81636352799896
H           -4.63054476743816        3.27321254100126        2.17554318062526
H           -5.41414570835611        2.37444724129745        0.82730135850027
H           -5.80480023743147        4.04642607330961        1.13806358590077
H           -2.89221182992024        5.10720344037744        1.70950249391370
H           -2.47152573309409        5.53871067393344        0.04557935612633
H           -4.10012280140086        5.85152435647842        0.64222548900828
H           -1.65061119213410        2.96232822457744        3.43241905058969
