72
 energy: -6.080473492757 xtb: 6.6.1 (8d0f1dd)
N           -1.54909190217146        2.81601552567112        2.27496307261222
C           -1.58980110182902        2.15810318942591        1.20600678939025
C           -2.77543591921404        2.07923852588691        0.28253503804828
C           -3.36693211879258        0.65862752990308        0.36702849030513
C           -4.33035990751290        0.22198729403877       -0.54775027537333
C           -4.86303626136670       -1.05539807556910       -0.50914459903522
O           -5.81640156578448       -1.53367547426725       -1.36147038750187
C           -6.38397769195442       -0.66004246731624       -2.30331436512409
C           -4.43192813630634       -1.97216903978818        0.47204270211366
O           -5.01617007595117       -3.20334105025210        0.42483231305863
C           -4.69955971720389       -4.14041255480709        1.42275183774622
C           -3.47278463469901       -1.55049219914478        1.37219896830115
C           -2.94816979888033       -0.26141976086655        1.31407043386653
C           -2.17386490527326        2.31949951827312       -1.13303141489669
C           -1.25659494186433        1.19652680510646       -1.63740251262169
C            0.02911920165419        1.14400626951091       -0.89613392418494
N            0.64511228364645       -0.04773842232498       -0.55013367182072
C            2.01728438162205       -0.04769379971390       -0.16037465061521
C            2.95127163618989       -0.53820963130524       -1.29123534273125
C            4.37677199813002       -0.43311185760591       -0.85309709631132
C            5.09716925253788        0.73055043177932       -1.05174380796029
C            6.40778721479479        0.83982423609490       -0.60642457727459
C            7.01866739770550       -0.21460734726053        0.04986309989137
O            8.29724484123751       -0.21948923485598        0.52417347956922
C            9.09065290782982        0.91987402167254        0.31433112238141
C            6.28830800647131       -1.40450215487134        0.26751158801054
O            6.96661817985479       -2.39139488544057        0.92220278290780
C            6.32026274002230       -3.61916968232011        1.13271380805665
C            4.98306458893949       -1.49392249741791       -0.17945146017467
C           -0.03672260607040       -1.30742562818115       -0.62795253471579
C           -3.88441735103024        3.13070674975230        0.54539642232954
C           -4.55035697663640        2.82722340199334        1.88186097238230
C           -3.38866130025543        4.57822156608251        0.55732393635553
H           -4.66527391567837        0.89874876688692       -1.31524791656049
H           -6.84311204427346        0.21022007156511       -1.82289773038837
H           -7.15651371738777       -1.23767721510871       -2.81029538035326
H           -5.64554759378624       -0.32133939737668       -3.03873838535950
H           -4.92726913001630       -3.75855149586930        2.42361058761419
H           -5.32308656856359       -5.01015990409994        1.21837509116672
H           -3.64615291815070       -4.43846638206779        1.38388691910110
H           -3.12037612911671       -2.22969830429906        2.13216667523701
H           -2.20316877099783        0.01573158925430        2.03747144967913
H           -2.99131599230730        2.44590299872852       -1.84881754102229
H           -1.59776535354922        3.24801355327865       -1.12502007933983
H           -1.79838952135791        0.26817918701578       -1.49701585131331
H           -1.08048799042029        1.36626948973972       -2.71091100008230
H           -0.71529898828568        1.64832267676833        0.73711810579465
H            0.69230101221573        1.98775879926559       -1.00051171675235
H            2.14606831944091       -0.68517548104948        0.72308477032250
H            2.30715863257697        0.96802398163195        0.11199421145172
H            2.77245656277651        0.08934296687422       -2.16812017694609
H            2.70052549613944       -1.57080927357726       -1.54171607418731
H            4.64560551728062        1.56532874488203       -1.56742675168220
H            6.94670714500445        1.75665181559199       -0.78801575032317
H            8.66950253123941        1.80004430604951        0.81062273072875
H            9.22217772036401        1.13342071850280       -0.75276913861672
H           10.05923108087960        0.68936862080460        0.75534508426985
H            7.05126426563520       -4.25190770448429        1.63461483285615
H            5.43945098892848       -3.50652097175018        1.77586034113121
H            6.02129738654737       -4.09121008963025        0.19010887159758
H            4.41552434349943       -2.39836063680888       -0.02451811149950
H           -0.21093493636207       -1.61277367821220       -1.67050687971824
H           -0.99975947347213       -1.24852987058083       -0.11319568503946
H            0.56500923720018       -2.07133180277728       -0.13487410609297
H           -4.63199667367068        3.03385018496189       -0.25353975437453
H           -3.80794701018257        2.93161120943869        2.67081814631720
H           -4.93093048443470        1.81019583974181        1.88073983265430
H           -5.37544645482120        3.51399690591188        2.05490168744713
H           -2.62799249413629        4.69719963173713        1.32128557824712
H           -2.97678454638673        4.87851596080475       -0.40155510618076
H           -4.22047667235139        5.23918123659732        0.79415947690552
H           -0.67452575577702        2.79415914659963        2.79226274323403
