72
 energy: 78.170434513136 xtb: 6.6.1 (8d0f1dd)
N           -2.18159918357465        3.08449272971658        2.65000357030605
C           -1.98541807915289        2.37180456116764        1.62400439244984
C           -2.75074451019428        2.59118761272473        0.41810828705399
C           -3.57215197494510        0.29917845629000        0.53176095974552
C           -4.44774725746790       -0.15159989753977       -0.44225040132673
C           -4.97400492366177       -1.42550519164420       -0.38765080260382
O           -5.81748750822627       -1.92694607108642       -1.33126156984386
C           -6.27904235184187       -1.07884805376395       -2.37403794390891
C           -4.65031052627665       -2.28968772541906        0.67258380621347
O           -5.23360749366666       -3.52207226998621        0.57986377169406
C           -5.01138123706938       -4.47213969808381        1.56887464952023
C           -3.81105035799972       -1.80957889208396        1.65554186712523
C           -3.29298164764984       -0.51243279532661        1.59846104215152
C           -1.85101879258501        2.60053980791695       -0.77136826405115
C           -1.19743160448688        1.24022981819670       -0.92652173282812
C            0.24269956425474        1.17901842505555       -0.58857242259366
N            0.82735946222893       -0.04976093305243       -0.39394694970543
C            2.22386462029498       -0.13692164074117       -0.19007440097877
C            3.10338706717145       -0.46767958081885       -1.42336235411139
C            4.53228776726310       -0.41064926897535       -0.98402710595945
C            5.27362615932488        0.74435054024149       -1.13806927171761
C            6.58405297918263        0.81976331997128       -0.67544604237358
C            7.18503168352296       -0.26443893031330       -0.05464132937830
O            8.47013807073389       -0.30216561198438        0.41949944814916
C            9.26544762093344        0.84510939243194        0.25804854652848
C            6.42588754701597       -1.44420924194825        0.12249198242632
O            7.07618692613414       -2.47491913800249        0.73875454516328
C            6.35592010593423       -3.66239313343987        0.94496720859582
C            5.11552628489334       -1.49454015579527       -0.32856031648877
C            0.12136953566589       -1.26312362316822       -0.74336026637670
C           -3.84057825159492        3.62336434385535        0.30433349703390
C           -4.97184233184565        3.23093286564241        1.31248624159700
C           -3.28717234794210        5.03124134690030        0.64987253498020
H           -4.72336322208575        0.47936412709002       -1.28009129188074
H           -6.80652987002017       -0.18337013394615       -2.02161497067869
H           -6.99785056779668       -1.68121736965753       -2.91995056359137
H           -5.48211343585731       -0.76229343347929       -3.06054146851689
H           -5.30162766446100       -4.08996395218276        2.55121079308748
H           -5.63993451103768       -5.32126510814455        1.26761501255048
H           -3.95213330995844       -4.76704856189657        1.61166755927558
H           -3.53080433245648       -2.44572650029331        2.47684216501061
H           -2.63601628280365       -0.17833301092326        2.38811204375237
H           -2.48414306421368        2.87067792233880       -1.62775102198692
H           -1.11062734584274        3.36788659323239       -0.55174483709106
H           -1.91241807129458        0.70141929044405       -0.19495813453427
H           -1.37023382605243        0.90009546446971       -1.95382037694861
H           -1.07562627556243        1.71718036040210        1.53541118425070
H            0.92968882983336        1.99558110498332       -0.80031270669336
H            2.39015025908148       -0.87422626191418        0.60154288512457
H            2.51984738225243        0.83464311867152        0.19882998865795
H            2.91689078839345        0.27476873440009       -2.20814841713630
H            2.84949456108516       -1.46659481671274       -1.78940825552861
H            4.83875203163118        1.59937750208738       -1.63486738042922
H            7.14120201953646        1.73585562679094       -0.81531230952540
H            8.83751373152683        1.71058189517435        0.77477481182352
H            9.40310348699031        1.09054821790502       -0.80114029018071
H           10.23772806000663        0.60807000339964        0.69501529701759
H            7.03871626285411       -4.34754168172311        1.44381350636469
H            5.47709063194421       -3.49992686218559        1.58476203411717
H            6.03885603584528       -4.10577458471241       -0.00386081923449
H            4.52529471976413       -2.38850874491580       -0.19842782233285
H           -0.09950067412816       -1.31203975354183       -1.82097746820222
H           -0.82665728482627       -1.29796458624248       -0.19703713714108
H            0.70404610828066       -2.14222710678888       -0.45236096146986
H           -4.20727884133634        3.64259663173946       -0.74435596005383
H           -4.51178488598845        3.20233978067779        2.30572832422932
H           -5.42183369148183        2.26591758773167        1.06813651522375
H           -5.77908194073832        3.94897494671103        1.34309443734935
H           -2.85191170978562        5.01264646293744        1.64324035705996
H           -2.54034417803334        5.38892502173732       -0.06146763618958
H           -4.12340245956876        5.72002743153321        0.63429232589602
H           -1.43792883981875        2.97243823066352        3.32183281799879
