25
 energy: 0.000000000000 xtb: 6.6.1 (8d0f1dd)
C            3.23720163006194        1.16630919979326        0.08434469647475
N            2.29877817382611        0.07527477071623        0.03981603040599
C            2.58028210190900       -1.21425402444508        0.03006176031096
N            1.43813958087363       -1.93419271955128        0.00098261760884
C            0.39035688448383       -1.05887472636071       -0.00790371836672
C            0.93510056364412        0.21347819449412        0.01709077491437
C            0.09450143893243        1.40504303904423       -0.00410947031874
O            0.49712751527797        2.54126714362870       -0.00342325688240
N           -1.25076640035757        1.06271879480407       -0.03085478223738
C           -2.21907211982101        2.15522099834493       -0.05001256985998
C           -1.81739487048744       -0.20012725993278       -0.04692818574614
O           -2.99983886758376       -0.37846417018721       -0.07008878229737
N           -0.92618586207120       -1.30210215599479       -0.03682761578324
C           -1.46982264913417       -2.64643102187190       -0.06029820460571
H            3.71247264356769        1.21471455160235        1.06488849150277
H            4.00791497605742        1.03430808813993       -0.67357694370751
H            2.69910007168542        2.09770118228144       -0.09130154882931
H            3.56654120610678       -1.63682992603973        0.04233140067262
H           -1.67107961066214        3.09322851271934       -0.02552706933167
H           -2.82428953597071        2.09428624779827       -0.95318082946668
H           -2.87644029173232        2.07745725625962        0.81450067533302
H           -1.17061996399332       -3.19584890659852        0.83242232437030
H           -1.14560257411436       -3.17511610292205       -0.95688275822323
H           -2.55549792440841       -2.55659984320617       -0.07459039797972
H            1.38130855184625       -2.94313852034425       -0.01389874181052
25
 energy: -3.955079385572 xtb: 6.6.1 (8d0f1dd)
C            3.27799753269406        1.17233943036666        0.04661045285712
N            2.31583233840042        0.09482539586930        0.03875043010011
C            2.59317079345770       -1.23653165796791        0.05883456854256
N            1.41862509592283       -1.94128589582715        0.03129517283212
C            0.39006507258782       -1.05579275462879        0.00899490770203
C            0.93057774078965        0.22265662613118        0.03518125860564
C            0.09378117267711        1.39280536916163        0.01422973863322
O            0.48689143114677        2.55915680690671        0.02028924422631
N           -1.26910760416146        1.04785630229178       -0.02655913254057
C           -2.23220970955836        2.14292098865722       -0.05175044142871
C           -1.83194464718588       -0.20327015534341       -0.05439868839305
O           -3.02812243747725       -0.38623528876858       -0.09399004348369
N           -0.94152766409499       -1.30224016303714       -0.03556934141875
C           -1.48203282051570       -2.64445834350188       -0.07228867056781
H            3.81115876378300        1.16804418629310        0.99530725609433
H            4.06576253582427        1.16182274404518       -0.76139738279977
H            2.70620188488226        2.10145592345016       -0.02458237995243
H            3.56668781228400       -1.66854935517358        0.09562177361923
H           -1.67502034716834        3.07673056793024       -0.02616325724157
H           -2.83475084465163        2.08736520641674       -0.95810679652535
H           -2.89455727479421        2.07321880967255        0.81068633387511
H           -1.19128642518533       -3.20152622950932        0.82030708364315
H           -1.14540023453259       -3.17237033482445       -0.96684703154080
H           -2.56757383110265       -2.55445645430617       -0.09928675498919
H            1.34899633391469       -2.94545312213205        0.02186559629805
25
 energy: 1.540008674463 xtb: 6.6.1 (8d0f1dd)
C            3.32726684766517        1.17670165501485       -0.00451147229604
N            2.33670522402587        0.11509840668191        0.03498368766479
C            2.59898509363353       -1.25644628945578        0.10602122869904
N            1.39429292209906       -1.94011967061703        0.07880789747995
C            0.38883714240159       -1.04829816998614        0.03514380522460
C            0.92667182658906        0.23675182818899        0.05168808191607
C            0.09271171237137        1.37525567369270        0.03713916532730
O            0.45944157779111        2.56395762943469        0.06094650501232
N           -1.29340121211072        1.03198533904090       -0.02142063763354
C           -2.25043873783463        2.12938358546397       -0.05371956158542
C           -1.84407583605584       -0.20715882809334       -0.06711951080027
O           -3.04591014314134       -0.39845550799141       -0.13294603426996
N           -0.95733842997095       -1.29947956468813       -0.03264902458546
C           -1.49508854873269       -2.64059449337964       -0.09100648394268
H            3.97732636061572        1.07788521505576        0.88006136092946
H            4.10661214612916        1.33363936099712       -0.89936732722300
H            2.72289931548132        2.10843861721866        0.08429122204395
H            3.55711177465044       -1.70216512402327        0.18873539667997
H           -1.68531358215504        3.05923946853001       -0.02709406992320
H           -2.84992681002031        2.07621781078366       -0.96323878177074
H           -2.92008553258425        2.06710672711436        0.80478499036913
H           -1.22376133627874       -3.21078006047586        0.80145290029823
H           -1.14346001457108       -3.16685793354901       -0.98302331635541
H           -2.58084728493906       -2.55029711026799       -0.13887105278262
H            1.31300019287737       -2.94197996251791        0.07794492767081
25
 energy: 8.455294248893 xtb: 6.6.1 (8d0f1dd)
C            3.36250118583528        1.17854991023934       -0.04632673589232
N            2.34895675253909        0.12854968346116        0.03225919609008
C            2.59527619674085       -1.25955752776400        0.14444984463203
N            1.38211991099283       -1.93275910084493        0.12301858090942
C            0.38583950392557       -1.04089916432343        0.05452252736664
C            0.92513939141239        0.24849997258044        0.05565915062857
C            0.08578708464149        1.37303969734758        0.05658643767308
O            0.42879441170040        2.56800197078114        0.10248879677360
N           -1.31239069720909        1.02653811880986       -0.01419898195446
C           -2.27000704641597        2.12036213744132       -0.05104830960539
C           -1.85306975277173       -0.21190914019774       -0.07997593934069
O           -3.05396246319931       -0.41156004424756       -0.16802314920572
N           -0.96441496349583       -1.29743292065046       -0.03040057089873
C           -1.50196464439349       -2.63844905641331       -0.11063356677050
H            4.11349776011482        0.99685508227406        0.76056453895779
H            4.11687917912830        1.43479646012372       -1.00234928976927
H            2.77622201251984        2.11203208639024        0.16252434388291
H            3.54424662473880       -1.71689261801071        0.28264383796585
H           -1.70427059488005        3.04921464148146       -0.02286513031986
H           -2.86632801277270        2.06407974270770       -0.96284376173816
H           -2.94438690454407        2.05816503742322        0.80407422011629
H           -1.25261462535833       -3.22008193313511        0.78147158224609
H           -1.13769553662737       -3.15907948891770       -1.00141600134134
H           -2.58771053350344       -2.54570751969029       -0.17926987403047
H            1.29577042881782       -2.93532742469397        0.13612214977191
25
 energy: 11.108956538113 xtb: 6.6.1 (8d0f1dd)
C            3.38388392671227        1.17507756153759       -0.07291099921424
N            2.35459161392683        0.13512925662492        0.02940095738106
C            2.58875307611083       -1.25195189026078        0.16459072860881
N            1.37975240897659       -1.92324286924843        0.15353602269930
C            0.38246661561622       -1.03446672643862        0.06298018196892
C            0.92557773067522        0.25601147192562        0.04636745296222
C            0.07813217032656        1.37936185677560        0.06869694480130
O            0.40509480813878        2.57001382959771        0.13420554610721
N           -1.32307180723582        1.02682169438698       -0.00589102027173
C           -2.28549413591996        2.11501708740168       -0.04416539703770
C           -1.85828961041951       -0.21566215447017       -0.08802218164992
O           -3.05504138886874       -0.41981817362935       -0.19176543250887
N           -0.96536765496686       -1.29610937868893       -0.02874313367656
C           -1.50368661948118       -2.63746682669505       -0.12594267722558
H            4.17152212203570        0.94658724753437        0.66652334992556
H            4.12507736720606        1.47370128960369       -1.05051718976586
H            2.84354907734375        2.10197249005200        0.19239152402547
H            3.53057630248196       -1.71443537406200        0.35775490171655
H           -1.72465216409872        3.04593006309132       -0.01508933699816
H           -2.88079186497001        2.05396305053818       -0.95641753752683
H           -2.96153847096601        2.04971947629234        0.80940000193406
H           -1.27165299701620       -3.22665081790859        0.76514999382074
H           -1.13061033743701       -3.15187390775216       -1.01605467661820
H           -2.58884012614492       -2.54152853354287       -0.20949128723432
H            1.29227462591027       -2.92707112049302        0.18104715992407
25
 energy: 11.076235569233 xtb: 6.6.1 (8d0f1dd)
C            3.38819433700997        1.17074937550410       -0.07933279764183
N            2.35316092964274        0.13740299213028        0.02975268055315
C            2.58320215568579       -1.23773845355661        0.16106427566395
N            1.38359346858332       -1.91371314659813        0.16736882944604
C            0.37935108634971       -1.02988330806542        0.06364859683632
C            0.92526915275502        0.25934130536853        0.03205930235087
C            0.07386749900707        1.38780805610970        0.07066829062555
O            0.39356116932034        2.57069718747143        0.14837942171279
N           -1.32455368800989        1.02857766174568       -0.00267394409665
C           -2.29209973202461        2.11272271200638       -0.04380097381187
C           -1.85958482395464       -0.21768462562657       -0.09092718279324
O           -3.05214298649675       -0.42114481568036       -0.20499703607981
N           -0.96314496594251       -1.29585724271828       -0.02568252246501
C           -1.50119035482363       -2.63779716975991       -0.12972181620137
H            4.19922394297215        0.88704155437832        0.60132560879152
H            4.10335337451496        1.48550981103277       -1.07779877081628
H            2.88536451378455        2.09364449134519        0.24390143410238
H            3.51807743456968       -1.69569594089015        0.39943036363586
H           -1.73802534025487        3.04735985369547       -0.01630498893216
H           -2.88751254345655        2.04612660005193       -0.95559850669144
H           -2.96801689166918        2.04630376972697        0.80979990468375
H           -1.27780454332490       -3.22742730495134        0.76139227845926
H           -1.12257869866246       -3.14950423712760       -1.01787510358760
H           -2.58528375971751       -2.53978860575809       -0.22053037432328
H            1.29793393207821       -2.91802191766226        0.20348692672642
25
 energy: 9.868632932187 xtb: 6.6.1 (8d0f1dd)
C            3.38374519154841        1.16845032182951       -0.07430094852443
N            2.34877498913443        0.13851321798069        0.03019016546291
C            2.58137492856998       -1.22811160708792        0.14991163061935
N            1.38637623386363       -1.90828053245454        0.16722439966827
C            0.37758788908162       -1.02740389260005        0.06040720410339
C            0.92370344824476        0.26055505152477        0.02045331279780
C            0.07299604672425        1.39196303089478        0.06632564242726
O            0.39161053312397        2.57223782956014        0.15323085724614
N           -1.32189774348335        1.02867919148481       -0.00448867775948
C           -2.29172073572072        2.11194604839721       -0.04522450905032
C           -1.85908603967186       -0.21811181698803       -0.09134989369713
O           -3.04987893653475       -0.41935631348239       -0.20815364743067
N           -0.96173671209790       -1.29600516642117       -0.02397099923635
C           -1.49856880639142       -2.63865565528752       -0.12687747919195
H            4.20084877907450        0.85566414968477        0.57115951459552
H            4.08061761111212        1.48420627303843       -1.07611681311187
H            2.90433714537063        2.08434564160432        0.27261517395674
H            3.51161799050224       -1.67888246240913        0.41661665112817
H           -1.74065669348902        3.04855682891511       -0.01918914933330
H           -2.88809210143021        2.04349420089193       -0.95614400102224
H           -2.96622328953642        2.04557810719127        0.80953577052464
H           -1.27533564085906       -3.22613987609262        0.76499027724824
H           -1.11799025896045       -3.15062455057186       -1.01355253607140
H           -2.58217144164028       -2.54124593788523       -0.21868008280335
H            1.30198228140094       -2.91234347954525        0.20242203360139
25
 energy: 9.081906621981 xtb: 6.6.1 (8d0f1dd)
C            3.37964692704445        1.16860154633154       -0.06948095678798
N            2.34486569309967        0.14060442452148        0.02837550719555
C            2.58225388511177       -1.22435863925204        0.13706489926420
N            1.38718693864022       -1.90635371844806        0.16463485488720
C            0.37721392318573       -1.02622400640501        0.05840714312393
C            0.92173718745716        0.26151810268434        0.01534189013419
C            0.07270074186636        1.39315089317221        0.06347344606629
O            0.39261069430591        2.57378297838548        0.15230348807120
N           -1.32029923794093        1.02840338444904       -0.00798288866109
C           -2.29043371120293        2.11206750234170       -0.04920175398565
C           -1.85872711115507       -0.21785888574068       -0.09143632902996
O           -3.04960918078770       -0.41833396644082       -0.20843656022867
N           -0.96140879714045       -1.29614964562790       -0.02246223490015
C           -1.49683100680632       -2.63939126865979       -0.12223517116564
H            4.21005417534189        0.82733001359181        0.55248721967086
H            4.05735319954329        1.49105940650199       -1.07652795160691
H            2.90977201654576        2.08307125468938        0.30877883452484
H            3.50901898929044       -1.66915753554391        0.42557629612222
H           -1.73951939840469        3.04899401703404       -0.02397316239313
H           -2.88694460891825        2.04296342430641       -0.95986979266530
H           -2.96408223816953        2.04642020961875        0.80626559226733
H           -1.27137996130933       -3.22457815465358        0.77084115552087
H           -1.11568516929610       -3.15283204038151       -1.00790786284956
H           -2.58041847857166       -2.54347878854801       -0.21340384801509
H            1.30313919620634       -2.91022190575482        0.19640208158774
25
 energy: 7.935270807316 xtb: 6.6.1 (8d0f1dd)
C            3.37702218537131        1.16892882187877       -0.06465933885500
N            2.34207158140915        0.14170284079362        0.02524648945353
C            2.58512528194211       -1.22495068941113        0.12334748061328
N            1.38737321872191       -1.90681728451319        0.16040482305944
C            0.37810489306691       -1.02598458647466        0.05676331331978
C            0.92089747635816        0.26162389593072        0.01370418319228
C            0.07283277519572        1.39261880648123        0.06207612019915
O            0.39586994249648        2.57424714598826        0.14916608632449
N           -1.31862935789284        1.02836438660054       -0.01108635113530
C           -2.28847634702381        2.11286468216983       -0.05139563039584
C           -1.85789257619800       -0.21705213880915       -0.09081564912353
O           -3.04948848312792       -0.41760511660289       -0.20543877503099
N           -0.96096270115774       -1.29603323566368       -0.02172042979961
C           -1.49573446029597       -2.63958431062322       -0.11839334521103
H            4.20328132213108        0.82273114864706        0.54520727977354
H            4.04259768717599        1.49429155867252       -1.06423539045878
H            2.91216520630734        2.07647250995432        0.32088628770109
H            3.50828591981396       -1.66426373153599        0.43113289906474
H           -1.73633941656135        3.04921550997033       -0.02596703807545
H           -2.88511427513907        2.04454166171090       -0.96187884978304
H           -2.96139226947844        2.04726396189926        0.80457873976673
H           -1.26700448252383       -3.22341979112608        0.77547673266628
H           -1.11548646586234       -3.15432738878891       -1.00400358865712
H           -2.57957753311720       -2.54520396965716       -0.20772341579611
H            1.30268554632441       -2.91059608531925        0.18636126333481
25
 energy: 7.436328392660 xtb: 6.6.1 (8d0f1dd)
C            3.37788539767766        1.17035488089252       -0.06345514938286
N            2.34116201263111        0.14257006402703        0.02255486979730
C            2.58796987933029       -1.22815652165984        0.11289294808244
N            1.38691472521741       -1.90837399773459        0.15914999819127
C            0.37926833043005       -1.02647494515375        0.05798939616618
C            0.92085816339839        0.26135768161467        0.01737089265178
C            0.07196964329333        1.39153312489550        0.06276812391496
O            0.39728133187481        2.57385407299109        0.14501433189437
N           -1.31916028724081        1.02879870540097       -0.01250704765031
C           -2.28849147198386        2.11364084132356       -0.05304343723230
C           -1.85766477871649       -0.21659737368781       -0.09031646731825
O           -3.04995779698682       -0.41841562185856       -0.20261149585296
N           -0.96074512793670       -1.29578520758299       -0.02099073021920
C           -1.49561691553349       -2.63926610008443       -0.11700641900171
H            4.20729528761377        0.82048761054751        0.54256948411169
H            4.03393446716626        1.50157099834557       -1.05906132299080
H            2.91268234608936        2.07429828111382        0.32820297102084
H            3.50795728728180       -1.66419788398643        0.43629844090569
H           -1.73510802967572        3.04923785498037       -0.02732419745612
H           -2.88450000944228        2.04560375177434       -0.96388010921229
H           -2.96178779005964        2.04803280739892        0.80255235142698
H           -1.26558948958341       -3.22309886626940        0.77690663454868
H           -1.11631612068762       -3.15436877692604       -1.00304714684300
H           -2.57969856692712       -2.54532511998422       -0.20533772041518
H            1.30167218070577       -2.91225165820574        0.18134469701014
25
 energy: 7.068077387333 xtb: 6.6.1 (8d0f1dd)
C            3.38084281543215        1.17134382332807       -0.06560994650694
N            2.34152249548396        0.14220878479997        0.01852788112344
C            2.59105067697952       -1.23291528262803        0.10034889753941
N            1.38660381157132       -1.91041541509676        0.15910211216301
C            0.38063712342992       -1.02737246380704        0.06103712739393
C            0.92208827488084        0.26039995258703        0.02307358657265
C            0.07093959401648        1.39042763086124        0.06322741205365
O            0.39801575372298        2.57285693151205        0.14057963719871
N           -1.31985452765131        1.02963095006966       -0.01279052656671
C           -2.28900686680964        2.11426727576316       -0.05387903505214
C           -1.85724257683791       -0.21635786101047       -0.08931419765555
O           -3.04995452059389       -0.41947994645742       -0.19973612080095
N           -0.96008927403093       -1.29529684677377       -0.01971602529027
C           -1.49579133893938       -2.63847779695674       -0.11676439571378
H            4.20941978788368        0.82207205456060        0.54241079190835
H            4.02882283158565        1.50880773208190       -1.05565824120726
H            2.91276534200330        2.07341296686679        0.33302201117815
H            3.50652741834213       -1.66528836917625        0.44433836281687
H           -1.73516604282833        3.04947996982520       -0.02809583855049
H           -2.88440013435036        2.04606891305095       -0.96510625035268
H           -2.96307335296693        2.04848435106826        0.80103690821043
H           -1.26598984328563       -3.22323853467811        0.77654062807058
H           -1.11740075598250       -3.15310348855438       -1.00355117114126
H           -2.58002018267375       -2.54404345887576       -0.20473000026168
H            1.30096815955463       -2.91444327018808        0.17874028901786
25
 energy: 6.858287215577 xtb: 6.6.1 (8d0f1dd)
C            3.38216118062404        1.17170342951394       -0.06755217931976
N            2.34192089723892        0.14159671329677        0.01714200498706
C            2.59203725517415       -1.23463209833962        0.09407474809282
N            1.38666417728093       -1.91078089161058        0.15964416404791
C            0.38089463688548       -1.02752651934581        0.06331169359815
C            0.92301654243316        0.25991969203812        0.02581381213005
C            0.07054608075048        1.39031205731510        0.06305192552913
O            0.39761585422900        2.57240094229827        0.14018459754035
N           -1.31983949293799        1.02996779490897       -0.01205838605442
C           -2.28928152604685        2.11414477454550       -0.05350326301876
C           -1.85701677598364       -0.21651949959516       -0.08884800955734
O           -3.04963881037973       -0.41962418897017       -0.19972639487636
N           -0.95964486762361       -1.29495323555774       -0.01878138221629
C           -1.49579147329601       -2.63804988101212       -0.11739110543921
H            4.21140900343258        0.82345521463903        0.54372057521858
H            4.02733821506268        1.50926896519448       -1.05522445590170
H            2.91298993684410        2.07265778081454        0.33003430000203
H            3.50424252257171       -1.66430971730224        0.45088360111115
H           -1.73605580467021        3.04965436935315       -0.02775574878690
H           -2.88458076641330        2.04563708513884       -0.96483719324310
H           -2.96368702720996        2.04808168982489        0.80113839883330
H           -1.26710013946014       -3.22365265337631        0.77533362813930
H           -1.11722465712406       -3.15186855365564       -1.00450049711548
H           -2.57997063950929       -2.54302152129277       -0.20593693106378
H            1.30121034606359       -2.91483314665139        0.17881599351060
25
 energy: 6.628963416525 xtb: 6.6.1 (8d0f1dd)
C            3.38315753119303        1.17120248047509       -0.07105155185566
N            2.34264111264289        0.14014987610133        0.01466836563679
C            2.59288621873538       -1.23627284713229        0.08552901152126
N            1.38680218307982       -1.91078873988990        0.15987291455591
C            0.38087279482533       -1.02736325977070        0.06566461471327
C            0.92441277758628        0.25938826910767        0.02716492409010
C            0.07078127085980        1.39046346689889        0.06270369232122
O            0.39717681386396        2.57188126803199        0.14132784426642
N           -1.31898804979034        1.03015103663984       -0.01067142416668
C           -2.28905290903595        2.11369518986021       -0.05258308662335
C           -1.85651790571149       -0.21682009700840       -0.08856547004927
O           -3.04879980009860       -0.41905308230056       -0.20109792682480
N           -0.95903663830998       -1.29452365541066       -0.01741449086964
C           -1.49558955118355       -2.63762802771944       -0.11796352026910
H            4.21012370340933        0.82560283466017        0.54576657588794
H            4.02706721465213        1.50771193670802       -1.05643926036411
H            2.91233783035406        2.07236905388722        0.32681507737820
H            3.50012081139580       -1.66174519358245        0.46149977377829
H           -1.73710701524706        3.04990755546202       -0.02690289858511
H           -2.88448818449724        2.04468449603834       -0.96389684575044
H           -2.96367432859260        2.04724730170624        0.80191934369534
H           -1.26853546684056       -3.22416000987458        0.77411820207354
H           -1.11633446318131       -3.15039839337493       -1.00523127083111
H           -2.57960618004015       -2.54184701169848       -0.20767738002136
H            1.30156489786708       -2.91482584564260        0.17947868243969
25
 energy: 6.516969856851 xtb: 6.6.1 (8d0f1dd)
C            3.38246885671930        1.17061404803272       -0.07229125130786
N            2.34283791916522        0.13931573092439        0.01385277047692
C            2.59315112979547       -1.23651966075512        0.08144856411093
N            1.38679211933826       -1.91040911656086        0.15943511689429
C            0.38061284444122       -1.02692722302746        0.06610556726106
C            0.92489058185978        0.25937965705377        0.02616959000239
C            0.07135454175732        1.39074297082941        0.06293549252215
O            0.39697031504561        2.57186891628296        0.14348846902861
N           -1.31814348744777        1.02995982069250       -0.00976658272225
C           -2.28854783011463        2.11333500624704       -0.05187226678820
C           -1.85622446828134       -0.21702700746939       -0.08879496885033
O           -3.04827011811184       -0.41834826774323       -0.20302457318330
N           -0.95882340461219       -1.29440862437095       -0.01678670357538
C           -1.49528860694318       -2.63762898436720       -0.11800800968558
H            4.20870951597361        0.82685613154266        0.54738870645730
H            4.02781022874150        1.50471178939337       -1.05758625335944
H            2.91124154053086        2.07218078389068        0.32324861122064
H            3.49701936168826       -1.65898517688805        0.46787117508638
H           -1.73726150796142        3.04994362227492       -0.02615508720929
H           -2.88411762856908        2.04411326885107       -0.96310447317392
H           -2.96308566008520        2.04672316216535        0.80272674077613
H           -1.26882799539964       -3.22433167330559        0.77397296937851
H           -1.11539602662458       -3.15004765785752       -1.00512619337968
H           -2.57917995203961       -2.54170895095990       -0.20843155062499
H            1.30152239907008       -2.91437396270354        0.17933803679224
25
 energy: 6.472111473742 xtb: 6.6.1 (8d0f1dd)
C            3.38129714075508        1.17006029307481       -0.07248790682343
N            2.34280614683062        0.13885586608014        0.01308970281943
C            2.59368605793229       -1.23678449902214        0.07792630029209
N            1.38664012491412       -1.91024095280028        0.15830701114175
C            0.38054202105481       -1.02655287177506        0.06533376246600
C            0.92498720387657        0.25949871831042        0.02419780559931
C            0.07192579699877        1.39087745985543        0.06343215134203
O            0.39708796673359        2.57193744752351        0.14521456573941
N           -1.31753765636201        1.02972697462636       -0.00937192725156
C           -2.28803196517074        2.11323494693632       -0.05142796769415
C           -1.85598147359673       -0.21708078884572       -0.08911558405233
O           -3.04792245773183       -0.41787064281153       -0.20432247900495
N           -0.95871489934178       -1.29444203295345       -0.01657268908777
C           -1.49499133550015       -2.63775563607908       -0.11760927740353
H            4.20690724926886        0.82752976196837        0.54819304584187
H            4.02882797677208        1.50267503308246       -1.05838628410662
H            2.90988337678770        2.07228070249041        0.32173401794901
H            3.49472149745507       -1.65674482852675        0.47389683632914
H           -1.73682649945518        3.04991144721698       -0.02570357049168
H           -2.88368607602188        2.04395013364563       -0.96255788769187
H           -2.96236726431431        2.04663704147251        0.80333981368632
H           -1.26833329135957       -3.22424733345044        0.77453092028875
H           -1.11486957415677       -3.15029027340410       -1.00454306842397
H           -2.57882899636183       -2.54200663061165       -0.20816648492223
H            1.30099359792922       -2.91413073383111        0.17810308960634
25
 energy: 6.503196443088 xtb: 6.6.1 (8d0f1dd)
C            3.38046433991458        1.16991476577858       -0.07180080600006
N            2.34266343637745        0.13885291371688        0.01321147676298
C            2.59430853072113       -1.23709841723912        0.07634074647984
N            1.38653041305716       -1.91038058589467        0.15760286893110
C            0.38071136476484       -1.02649741602034        0.06448576936561
C            0.92487210965655        0.25952893446622        0.02318254432761
C            0.07211101919104        1.39081341523943        0.06389752346491
O            0.39731284724826        2.57188825383894        0.14571901625373
N           -1.31745298850207        1.02964548015215       -0.00945062954937
C           -2.28785453481770        2.11336894602977       -0.05139077685017
C           -1.85588927979745       -0.21702348356687       -0.08921027344684
O           -3.04786413988938       -0.41789363734466       -0.20443588236895
N           -0.95863945873268       -1.29454589206425       -0.01665261487725
C           -1.49487177008979       -2.63785791325163       -0.11726820364852
H            4.20622307972299        0.82793138203196        0.54856063012185
H            4.02988536776664        1.50192759345797       -1.05855288535334
H            2.90894750741870        2.07259235990421        0.32119604651704
H            3.49360592032426       -1.65572592008449        0.47634284922909
H           -1.73635737518880        3.04988208669472       -0.02570371822543
H           -2.88350854772795        2.04410599091451       -0.96247125938010
H           -2.96205009243053        2.04689236236564        0.80347080798816
H           -1.26772258324816       -3.22410537864492        0.77505605435770
H           -1.11492935145714       -3.15065624317746       -1.00415799824617
H           -2.57874255486568       -2.54231374327653       -0.20754391064523
H            1.30046140851975       -2.91421725185396        0.17660652093918
25
 energy: 6.570493438365 xtb: 6.6.1 (8d0f1dd)
C            3.38009605399182        1.17010173441914       -0.07090484945416
N            2.34242321384403        0.13917484686129        0.01349810718846
C            2.59505468730799       -1.23751640507811        0.07480703066368
N            1.38649929315202       -1.91071253008666        0.15698605145441
C            0.38103487460409       -1.02669841490703        0.06353248322403
C            0.92473155762764        0.25940793281972        0.02285159663502
C            0.07189434424426        1.39065092368953        0.06398494334673
O            0.39751285983304        2.57171674989355        0.14525411467961
N           -1.31769425238667        1.02973597960660       -0.00982075347900
C           -2.28797109212022        2.11361139968082       -0.05148394348890
C           -1.85589392169081       -0.21691071392082       -0.08900763195491
O           -3.04797393866880       -0.41826934607344       -0.20334450588620
N           -0.95851102671137       -1.29462971855803       -0.01692577026775
C           -1.49487749468565       -2.63787338193057       -0.11707754357149
H            4.20626059244714        0.82773358040952        0.54830734561374
H            4.03092119245477        1.50228612279202       -1.05848625257188
H            2.90864746432329        2.07311802474444        0.32141309102201
H            3.49324953936659       -1.65557365943716        0.47915007668997
H           -1.73611521870244        3.04991047714935       -0.02591182314607
H           -2.88365878083493        2.04439692140067       -0.96250868562891
H           -2.96203699304951        2.04723603862286        0.80344316543050
H           -1.26715445506765       -3.22398352756530        0.77530466738350
H           -1.11544172612788       -3.15089687500562       -1.00409564858321
H           -2.57882666876713       -2.54244800630632       -0.20676627008694
H            1.30004456355239       -2.91453955104841        0.17483490093508
