72
 energy: -99.330753379319 gnorm: 0.002878879869 xtb: 6.6.1 (8d0f1dd)
N           -2.24541472650319        3.38195930625898        1.49539211701220
C           -2.51914279831172        2.71356076538616        0.47704491399122
C           -3.93454932301608        2.37601786590311        0.06244375963646
C           -4.06414337523519        0.84552174783957        0.06372916319131
C           -5.05084446038470        0.23695679841866       -0.70814074443708
C           -5.22396638316350       -1.13884964601484       -0.69503612064474
O           -6.15791252902616       -1.81404697558822       -1.38923867902456
C           -7.09904730647578       -1.10230096367820       -2.15933260117445
C           -4.37029234400016       -1.94344445839037        0.11077138061162
O           -4.60384619091709       -3.26815902877687        0.05612031979780
C           -3.84708244883929       -4.13518942092342        0.86853327615780
C           -3.39417797071460       -1.32307964907238        0.87667164003697
C           -3.24276444664106        0.05669095262049        0.85420924010949
C           -4.08694202136603        2.87355499891057       -1.31999599557124
C           -0.72430632106106        0.76286934976834       -1.94634206320547
C            0.46704774553872        0.81622110692885       -1.33510479076163
N            0.96982582317473       -0.09413726815817       -0.45798524403463
C            2.35835173896572       -0.02098490303188       -0.09152753229886
C            3.28168616172022       -0.69263467549234       -1.13340529964469
C            4.71948369539715       -0.48171995645421       -0.76549170673314
C            5.35717686169050        0.70982038665319       -1.08632084831666
C            6.67410416452391        0.93377160844559       -0.72224141554616
C            7.38824011926770       -0.03350205215118       -0.02628788220434
O            8.66606030506697        0.07177214116157        0.37516972835144
C            9.38527261218381        1.24990105715702        0.08961816405088
C            6.74488698565588       -1.26031763841105        0.30585214248577
O            7.51077141161553       -2.14353940786120        0.97147971995041
C            6.97895080459378       -3.40020443945034        1.31879920790831
C            5.42211066001386       -1.45691119260729       -0.06409622524662
C            0.26437219503397       -1.32627890093868       -0.21948705760903
C           -5.04392665453948        2.97453260116934        0.97445126262440
C           -5.01197180897773        2.40866326651254        2.38836628750708
C           -4.95463069691793        4.49784996580406        1.01348923247804
H           -5.69239092684261        0.85051926970261       -1.31845527630565
H           -7.68554335884082       -0.41700299551207       -1.53985702864011
H           -7.75776190178396       -1.85725108217806       -2.58420001258308
H           -6.61754864050772       -0.54517184018134       -2.96875759405989
H           -3.96135525509315       -3.89224344176029        1.92914153797199
H           -4.24424353795212       -5.13105131742273        0.68172270656010
H           -2.78600491541639       -4.11209664673804        0.59947943129861
H           -2.75288572754727       -1.90940495952655        1.51552774564968
H           -2.49229101564040        0.51198032855827        1.48157143611512
H           -5.04180795987646        3.21346781274671       -1.67918210005550
H           -3.25039472741875        2.89292578320854       -1.99259087156620
H           -1.41167229545329       -0.05466572561797       -1.83173264450948
H           -1.02072656419591        1.54950596090873       -2.61470031953144
H           -1.77250479683431        2.31415499343134       -0.22702610870459
H            1.11421047248327        1.66786014343097       -1.49960812240476
H            2.49677593241507       -0.50285539222372        0.87997723966806
H            2.64542230240862        1.02927932174468        0.00779462904305
H            3.07731251995837       -0.24825025712798       -2.10959674920501
H            3.05278956558270       -1.75772617213606       -1.18378232275463
H            4.82662759197652        1.47197533487458       -1.63643542960507
H            7.14175569513814        1.86717037377320       -0.98962501871483
H            8.92772168151906        2.12218426254850        0.56601101948122
H            9.46301216044962        1.42004898135729       -0.98816321449858
H           10.37947224666812        1.09241120652883        0.50299502919586
H            7.78574100876137       -3.92905331048475        1.82282116100136
H            6.12918557747272       -3.30158864114442        2.00172493928517
H            6.67358847460210       -3.96487853735475        0.43251658623407
H            4.92710668155049       -2.38312108606462        0.18220219087192
H            0.23582886989379       -1.95768746868524       -1.11399600749335
H           -0.76258556482080       -1.10865270136377        0.07834857486361
H            0.75479674318268       -1.87364591711790        0.58248089630661
H           -5.99716637254170        2.69184131256698        0.51207982798470
H           -4.06096042801446        2.63763378631669        2.86014331173981
H           -5.15927563506945        1.33104498712217        2.38748275392663
H           -5.80520115304030        2.86220043680878        2.97699608262171
H           -4.08113933761283        4.80374040856922        1.58173498565096
H           -4.87514893805854        4.91016325580396        0.01011475547348
H           -5.84009220045749        4.90911828961714        1.48977736723423
H           -1.26951015243313        3.58689742358673        1.68422210574390
