  25
        -42.17567444
 C          3.2279660051        1.1326765028        0.0129136015
 N          2.2798496152        0.0522586117       -0.0149548780
 C          2.5596108100       -1.2581997594       -0.0154974596
 N          1.4068205642       -1.9718382854       -0.0057466040
 C          0.3652618394       -1.0847420997        0.0016671247
 C          0.9108596134        0.1949529771       -0.0030942755
 C          0.1068062766        1.3840548314        0.0046346284
 O          0.4845960537        2.5371974652        0.0022278908
 N         -1.2670437067        1.0459302490        0.0096111509
 C         -2.2243634639        2.1389732998        0.0038837594
 C         -1.7589532267       -0.2111773426        0.0020095634
 O         -3.0800875735       -0.3405086951       -0.0394933304
 N         -0.9824332171       -1.3363806477        0.0251821714
 C         -1.5096172680       -2.5919632813        0.0214959256
 H          3.7305917287        1.1706924615        0.9808410378
 H          3.9763728333        0.9999479345       -0.7674250299
 H          2.6926581328        2.0683736111       -0.1430371233
 H          3.5413059891       -1.6841060359       -0.0234747824
 H         -1.6546639380        3.0660723788        0.0047938314
 H         -2.8502476630        2.0852085069       -0.8856725439
 H         -2.8586551573        2.0866719925        0.8869379769
 H         -2.5054543556       -2.7729135309        0.3682754737
 H         -0.8559944690       -3.4187679407       -0.1159671404
 H         -3.3232403086       -1.2599895595       -0.2468123754
 H          1.3446252764       -2.9783380762        0.0034386354
