25
 energy: 0.000000000000 xtb: 6.6.1 (8d0f1dd)
C            3.23720163006194        1.16630919979326        0.08434469647475
N            2.29877817382611        0.07527477071623        0.03981603040599
C            2.58028210190900       -1.21425402444508        0.03006176031096
N            1.43813958087363       -1.93419271955128        0.00098261760884
C            0.39035688448383       -1.05887472636071       -0.00790371836672
C            0.93510056364412        0.21347819449412        0.01709077491437
C            0.09450143893243        1.40504303904423       -0.00410947031874
O            0.49712751527797        2.54126714362870       -0.00342325688240
N           -1.25076640035757        1.06271879480407       -0.03085478223738
C           -2.21907211982101        2.15522099834493       -0.05001256985998
C           -1.81739487048744       -0.20012725993278       -0.04692818574614
O           -2.99983886758376       -0.37846417018721       -0.07008878229737
N           -0.92618586207120       -1.30210215599479       -0.03682761578324
C           -1.46982264913417       -2.64643102187190       -0.06029820460571
H            3.71247264356769        1.21471455160235        1.06488849150277
H            4.00791497605742        1.03430808813993       -0.67357694370751
H            2.69910007168542        2.09770118228144       -0.09130154882931
H            3.56654120610678       -1.63682992603973        0.04233140067262
H           -1.67107961066214        3.09322851271934       -0.02552706933167
H           -2.82428953597071        2.09428624779827       -0.95318082946668
H           -2.87644029173232        2.07745725625962        0.81450067533302
H           -1.17061996399332       -3.19584890659852        0.83242232437030
H           -1.14560257411436       -3.17511610292205       -0.95688275822323
H           -2.55549792440841       -2.55659984320617       -0.07459039797972
H            1.38130855184625       -2.94313852034425       -0.01389874181052
25
 energy: -2.020939086886 xtb: 6.6.1 (8d0f1dd)
C            3.26997398234865        1.16023667781410        0.09426720032842
N            2.32240327375024        0.08878978684732        0.04291227111267
C            2.60768467303328       -1.23992905746135        0.03001941828417
N            1.43341977430727       -1.94187138106088       -0.00135943965599
C            0.40639310746133       -1.05223358525451       -0.00681312725121
C            0.94362920949723        0.22478651250461        0.01963838444432
C            0.11394941208987        1.40241227095883       -0.00282370429245
O            0.52047654213061        2.56457222012612        0.01001736329146
N           -1.25603462347427        1.06496313237418       -0.04932655463944
C           -2.24638150869963        2.14818132412813       -0.07753054196433
C           -1.81238464477843       -0.18912911395527       -0.04970347546248
O           -3.00827099070033       -0.37194016559244       -0.07292097912294
N           -0.92447716367163       -1.29102287680941       -0.03518986560939
C           -1.46516172431186       -2.63177209758472       -0.05919618638907
H            3.74206091539563        1.20400122267809        1.07926987630287
H            4.04304309639980        1.01372538757739       -0.66181663914573
H            2.73577955550910        2.09001234539786       -0.08883238422222
H            3.58390344933350       -1.67056382706474        0.03778879797424
H           -1.68608563675582        3.08730533735614       -0.05440803490655
H           -3.02787895293554        2.08770015484181       -0.88063405984719
H           -2.89656944622866        2.07153937890850        0.77110631157629
H           -1.16342399093205       -3.18390775774961        0.83282845900336
H           -1.13726255371432       -3.16212041431146       -0.95537940194034
H           -2.55019130772926       -2.53921998916629       -0.07432720408468
H            1.36362022061151       -2.94548688333036       -0.02055258763648
25
 energy: 8.599455391761 xtb: 6.6.1 (8d0f1dd)
C            3.31881473238930        1.13945365198359        0.10923155353632
N            2.34729080764544        0.09660766814259        0.04726150144738
C            2.62933870915301       -1.26373808981813        0.02971484100994
N            1.42649747130666       -1.94096002811104       -0.00560301733368
C            0.42372766530954       -1.03954148709043       -0.00711791451054
C            0.95317721397413        0.24186976555817        0.02304799158115
C            0.13299794480334        1.40323830536743       -0.00383335266415
O            0.53663018316038        2.57784875657914        0.03631932529734
N           -1.27031621561044        1.07869690817657       -0.09003527171484
C           -2.29497437518960        2.14190450380726       -0.11050618480914
C           -1.80077049375748       -0.17129415871018       -0.06355227458868
O           -3.00168423951222       -0.36493765305043       -0.07656253874467
N           -0.91901690196241       -1.27037525490007       -0.03427483797627
C           -1.45511839774760       -2.60857232430236       -0.05663382799916
H            3.78682518523336        1.18087643197472        1.09890559117932
H            4.10029665830693        0.97434544051855       -0.63797812019344
H            2.80490854279130        2.07736546991281       -0.08511083550007
H            3.59557923342096       -1.70541135165246        0.02898313095882
H           -1.72850490094136        3.08171993808069       -0.12139827255658
H           -3.28638346906661        2.05654451840889       -0.78128448703471
H           -2.91572585709311        2.06365795818539        0.74957024922967
H           -1.15247437657025       -3.16337328618757        0.83491683274555
H           -1.12482507943184       -3.14122656790642       -0.95221963400237
H           -2.53962405098110       -2.51369037706484       -0.07299951847126
H            1.34554867830590       -2.94198013572983       -0.03180703273863
25
 energy: 15.787484247279 xtb: 6.6.1 (8d0f1dd)
C            3.36092442451968        1.11512832552813        0.12108171964934
N            2.36141339371795        0.09696370239989        0.04896103900696
C            2.63443181995635       -1.27212708214105        0.02740661912032
N            1.42431324182703       -1.93478984473189       -0.01213584754654
C            0.43247458795184       -1.02722979931339       -0.00974811729145
C            0.96016028659038        0.25659707863696        0.02501573234658
C            0.13634335805570        1.41568425682875       -0.00226542280210
O            0.53539325544587        2.58947548657533        0.05681613114826
N           -1.28717027658480        1.09523836403657       -0.11914353474643
C           -2.35003127239802        2.13538403671090       -0.13081458569340
C           -1.79589125489566       -0.16025405994266       -0.07199224248098
O           -2.99615032679230       -0.36680395583272       -0.07548458091107
N           -0.91171449467706       -1.25300535650319       -0.03403267273319
C           -1.44469285943317       -2.59055065052915       -0.05372823075590
H            3.82329991268048        1.14978489701857        1.11487181954350
H            4.15097762635545        0.92788117246109       -0.61424908483897
H            2.87891775039760        2.06853977261901       -0.08348850381225
H            3.59706569969095       -1.72363412949090        0.01672892459728
H           -1.79807335987297        3.08230089387656       -0.18228981022138
H           -3.42841057355810        2.02103180454982       -0.73122583068672
H           -2.92540236643799        2.05922532380202        0.76141221948894
H           -1.14024659959790       -3.14310988261531        0.83848848747653
H           -1.11430726293454       -3.12273708451601       -0.94956626901641
H           -2.52913325005004       -2.49388055320929       -0.06883800588966
H            1.33772320797947       -2.93608411404606       -0.04474605680392
25
 energy: 17.023434715568 xtb: 6.6.1 (8d0f1dd)
C            3.38234707296504        1.09964819514979        0.12694758312030
N            2.36543540101523        0.09676735852938        0.04769285051914
C            2.63182526493221       -1.26954015795287        0.02536301924986
N            1.42493489323457       -1.92840340544239       -0.01756610923596
C            0.43422794437600       -1.01972349874124       -0.01305909854674
C            0.96238128275765        0.26482239737484        0.02541697159135
C            0.13397977271555        1.42563156603105        0.00149253773506
O            0.52866315204521        2.59436891415099        0.07006054762491
N           -1.29842662425545        1.10306394471969       -0.13126051878238
C           -2.38102438152268        2.13203987112841       -0.13904974173952
C           -1.79664470245161       -0.15763614177123       -0.07401997197788
O           -2.99460434791952       -0.37286686971324       -0.07029216190610
N           -0.90756657602728       -1.24463876617733       -0.03428689792457
C           -1.43802074626835       -2.58343826211035       -0.05154104497730
H            3.83826645155499        1.12850546452458        1.12414794945969
H            4.17643222427650        0.89521952789020       -0.59986850220366
H            2.92459659115609        2.06354865436720       -0.08484514629779
H            3.59412225418725       -1.72495455051996        0.00601802320781
H           -1.84452300370771        3.08396544955862       -0.21218922244734
H           -3.46964386499805        2.00310576064967       -0.71501202762799
H           -2.92964741283483        2.06483144276222        0.76744688447734
H           -1.13105464944197       -3.13290399911426        0.84119253836847
H           -1.10837299471988       -3.11453845025623       -0.94776923815375
H           -2.52267929227615       -2.48755294454451       -0.06450677267217
H            1.33721095914340       -2.93029289832103       -0.05347855471345
25
 energy: 15.698661173856 xtb: 6.6.1 (8d0f1dd)
C            3.38851590691753        1.09335859581907        0.12951755125369
N            2.36480671020859        0.09751158987156        0.04560700464909
C            2.62798288508326       -1.26407556092322        0.02566192550604
N            1.42560600147747       -1.92417707950798       -0.02061736691140
C            0.43275766335902       -1.01645760890818       -0.01641131912142
C            0.96163798188491        0.26824340598138        0.02398648534091
C            0.13173775834812        1.43035806490922        0.00254872721667
O            0.52250134148340        2.59582895315616        0.07937539551354
N           -1.30420717638253        1.10395005542648       -0.13658562330159
C           -2.39184375005267        2.13050087135759       -0.14158692382774
C           -1.79965977393543       -0.15848378061972       -0.07442688797625
O           -2.99581193703349       -0.37745257334919       -0.06580041818725
N           -0.90700949128704       -1.24224643967528       -0.03562573799470
C           -1.43526158307946       -2.58282356307980       -0.05086499914251
H            3.83877195228602        1.12031377200650        1.12917892572685
H            4.18386187534909        0.87954377725452       -0.59220319353065
H            2.94335872963633        2.06100308256272       -0.08687045789886
H            3.59095099742477       -1.71975600216760       -0.00046681255873
H           -1.86150028100431        3.08293058566021       -0.22906599347387
H           -3.46749580494715        1.99424101405557       -0.70853521505914
H           -2.92361050663773        2.07539055533611        0.77461081642430
H           -1.12612268051996       -3.13004027234085        0.84215320853319
H           -1.10580150379654       -3.11330545391311       -0.94713904664394
H           -2.52014806101151       -2.48896250819926       -0.06234960180195
H            1.33819741416552       -2.92636487854087       -0.05705654658695
25
 energy: 14.237427842043 xtb: 6.6.1 (8d0f1dd)
C            3.38836352890312        1.09208721871044        0.13102316774329
N            2.36314799324153        0.09889334956836        0.04345046952050
C            2.62522063550015       -1.25983833080467        0.02808312173469
N            1.42562294879842       -1.92208673926825       -0.02209392026832
C            0.43081176514604       -1.01553586414866       -0.01940058359462
C            0.95980792062692        0.26952483899708        0.02212749766381
C            0.13086783221308        1.43170203133208        0.00251198320464
O            0.51750362543329        2.59648604876164        0.08690749287636
N           -1.30715945129420        1.10177847492345       -0.14029505125933
C           -2.39322880147512        2.12973682134095       -0.14340835556552
C           -1.80264236688681       -0.16008702410843       -0.07453595397063
O           -2.99781520069179       -0.38047342827100       -0.06264017128902
N           -0.90809113857529       -1.24249698077047       -0.03747947079587
C           -1.43452914788501       -2.58439862434185       -0.05143122831974
H            3.83409455751092        1.11934368036107        1.13255417166762
H            4.18482387544255        0.87371117802026       -0.58702606807203
H            2.94895589016195        2.06054841861389       -0.08855333762092
H            3.58881549893398       -1.71466106605406       -0.00512235179180
H           -1.86371529492699        3.08089449567615       -0.24456477563393
H           -3.45837790938429        1.98655336806926       -0.69969030661379
H           -2.91040193625192        2.08887554632120        0.78247481621291
H           -1.12396826988001       -3.13034961490992        0.84174634022742
H           -1.10475729117329       -3.11458898809848       -0.94762067506994
H           -2.51954235604601       -2.49226659982273       -0.06220492536173
H            1.33840776049499       -2.92432360792526       -0.05777798947673
25
 energy: 13.565672900946 xtb: 6.6.1 (8d0f1dd)
C            3.38601198961627        1.09344980519734        0.13184774056361
N            2.36203093988477        0.09990203648423        0.04192924469312
C            2.62443068119017       -1.25858347710991        0.03178932927449
N            1.42535601683955       -1.92197386256376       -0.02223126736644
C            0.42982004765590       -1.01608618793221       -0.02103795092039
C            0.95833974940976        0.26943830701276        0.02104816396125
C            0.13119716884319        1.43088905957568        0.00274495732542
O            0.51452292177570        2.59653840758613        0.09065556113039
N           -1.30798022028833        1.09917794019585       -0.14212350973730
C           -2.39055044071379        2.12952979675766       -0.14528128500502
C           -1.80413778674618       -0.16130905211609       -0.07440406516861
O           -2.99915785826556       -0.38204428222906       -0.06101415064715
N           -0.90914459137232       -1.24381479163718       -0.03891622573100
C           -1.43481238633097       -2.58605530057530       -0.05265278989797
H            3.82943280056634        1.12182301100476        1.13435709106570
H            4.18371282545030        0.87464281375174       -0.58426945617457
H            2.94703113805813        2.06145243330122       -0.08915714536619
H            3.58822943138555       -1.71254035603698       -0.00863844312944
H           -1.85983819098472        3.07902833201213       -0.25635715470507
H           -3.45416662611563        1.98092733363065       -0.68955810992752
H           -2.89752309425339        2.10131057722073        0.78699386950265
H           -1.12403747653295       -3.13190127065327        0.84054894014162
H           -1.10465502761561       -3.11615298922467       -0.94879470485758
H           -2.51984495542177       -2.49448509961694       -0.06348103608308
H            1.33794761190179       -2.92413458186349       -0.05696370679360
25
 energy: 13.432075620686 xtb: 6.6.1 (8d0f1dd)
C            3.38359502334329        1.09543677773581        0.13233820463735
N            2.36168657110590        0.10008017496336        0.04124794086258
C            2.62492817982663       -1.25941729310782        0.03639099495966
N            1.42521509340940       -1.92282747299263       -0.02157942515628
C            0.42975483394907       -1.01715615098526       -0.02143076548413
C            0.95773067447050        0.26866584074898        0.02082310161289
C            0.13186059684953        1.42947155872579        0.00323703724301
O            0.51322622839175        2.59623493293434        0.09077171942237
N           -1.30769559764572        1.09743574615871       -0.14196929144936
C           -2.38765619681569        2.12951435520320       -0.14685194003602
C           -1.80435827836054       -0.16194874929985       -0.07403867962037
O           -2.99960089465834       -0.38274517782228       -0.06046585114838
N           -0.90952309299454       -1.24518926983764       -0.03975785035167
C           -1.43537131914435       -2.58708206412433       -0.05402706610127
H            3.82664121451842        1.12476036050654        1.13502292173574
H            4.18222259677803        0.87868220390729       -0.58347243838133
H            2.94211642910576        2.06254947293094       -0.08857703390927
H            3.58859322537172       -1.71277444697834       -0.01202209703954
H           -1.85565217990633        3.07761002104190       -0.26437318061827
H           -3.45417564508678        1.97739694857156       -0.68115887955004
H           -2.88815241857697        2.11107026906913        0.78903013429932
H           -1.12525692190517       -3.13354273698833        0.83911512567026
H           -1.10497558453707       -3.11714542354661       -0.95019023261638
H           -2.52037748894599       -2.49514211969394       -0.06533151688692
H            1.33743961939368       -2.92490915494849       -0.05569703594664
25
 energy: 13.486287752566 xtb: 6.6.1 (8d0f1dd)
C            3.38255900765655        1.09646453673056        0.13258631685754
N            2.36188096290857        0.09964990983843        0.04144402574876
C            2.62564449866883       -1.26067872662812        0.04044760353430
N            1.42526547236074       -1.92352757000377       -0.02086495124060
C            0.43010399489833       -1.01779320523083       -0.02114255862724
C            0.95792147228017        0.26801512855461        0.02111539771138
C            0.13210641758793        1.42870594831256        0.00355775766572
O            0.51325572855103        2.59596756955598        0.08913147463529
N           -1.30723710424629        1.09710189803571       -0.14054244046595
C           -2.38681274948407        2.12948905915155       -0.14741763586134
C           -1.80398173065163       -0.16204360357128       -0.07377107427023
O           -2.99939094652897       -0.38291547491987       -0.06069321277041
N           -0.90928439905826       -1.24581045131499       -0.04003392656390
C           -1.43565996909220       -2.58726803731882       -0.05484417390509
H            3.82641864840783        1.12589845156938        1.13491765590888
H            4.18133173144515        0.88181476763938       -0.58400485758433
H            2.93866005576154        2.06300844538658       -0.08744274123013
H            3.58904352999960       -1.71375307061977       -0.01519277229731
H           -1.85443481890096        3.07701388031095       -0.26771347382180
H           -3.45528605127265        1.97601037084091       -0.67771082818826
H           -2.88502643655305        2.11563214519119        0.78943014285938
H           -1.12625287732516       -3.13429925665886        0.83824997403595
H           -1.10522962953625       -3.11732217483771       -0.95103839608623
H           -2.52064253977070       -2.49474547792149       -0.06653794478833
H            1.33726239983012       -2.92558645992026       -0.05489546510874
25
 energy: 13.555817151090 xtb: 6.6.1 (8d0f1dd)
C            3.38169304360998        1.09744400142427        0.13312416881817
N            2.36236527683450        0.09866167904494        0.04260616158645
C            2.62672338285700       -1.26275229031274        0.04973734406300
N            1.42538908086978       -1.92438729739521       -0.01956980117569
C            0.43075802292515       -1.01841917423784       -0.02066431544802
C            0.95865111215603        0.26712103900612        0.02176957502963
C            0.13198860292052        1.42790159115810        0.00375435926075
O            0.51397608655554        2.59552867502423        0.08567439980389
N           -1.30656972085784        1.09730175052430       -0.13717924088965
C           -2.38692229502908        2.12941752054068       -0.14778338235162
C           -1.80324099613182       -0.16202367247247       -0.07356829934857
O           -2.99879296593613       -0.38312089293469       -0.06178098873523
N           -0.90857975079370       -1.24635222559431       -0.04054897278840
C           -1.43585558890472       -2.58719025052669       -0.05601662957831
H            3.82763796837873        1.12631083331341        1.13450765809961
H            4.18005222229481        0.88599510910931       -0.58551298211285
H            2.93423192640894        2.06331183838606       -0.08495337287322
H            3.58950019652548       -1.71518783041902       -0.02323000914576
H           -1.85449557728264        3.07633667700853       -0.27242306594027
H           -3.45729576556164        1.97381798608775       -0.67409069444116
H           -2.88245856949388        2.12172944585119        0.79017959045668
H           -1.12744956327012       -3.13492855476357        0.83705453289166
H           -1.10546269636965       -3.11727689106212       -0.95221494730851
H           -2.52080715007044       -2.49376942032945       -0.06818912762907
H            1.33717838530142       -2.92644104425876       -0.05364806409618
25
 energy: 13.505560452843 xtb: 6.6.1 (8d0f1dd)
C            3.38194875339950        1.09720022668123        0.13354522371660
N            2.36243629800674        0.09828513674917        0.04403708390139
C            2.62684504219783       -1.26329159515956        0.05863701558344
N            1.42533483361775       -1.92436790087012       -0.01890405329006
C            0.43092353609392       -1.01822689834007       -0.02104446650254
C            0.95910097027883        0.26700632151680        0.02195901779460
C            0.13131122376510        1.42788467482315        0.00355186244435
O            0.51463856023590        2.59524014613488        0.08423620777276
N           -1.30645989187669        1.09775388264285       -0.13507707078920
C           -2.38786101247614        2.12942958834909       -0.14744264991663
C           -1.80305384520884       -0.16205127666115       -0.07390429761768
O           -2.99852758235051       -0.38325012476418       -0.06303964255885
N           -0.90820755460788       -1.24618763370111       -0.04121533662634
C           -1.43562349388265       -2.58701709915435       -0.05637478748756
H            3.82924061521879        1.12531813315337        1.13426035848684
H            4.17954096852282        0.88625403119772       -0.58637854900987
H            2.93398939965016        2.06309226221602       -0.08364048281642
H            3.58896538802457       -1.71479325453072       -0.03181962646555
H           -1.85586091934230        3.07616105274343       -0.27413307017393
H           -3.45764924945975        1.97263351458108       -0.67380085710786
H           -2.88301819373301        2.12371100744247        0.79049712253502
H           -1.12717197232559       -3.13456470057836        0.83679170320424
H           -1.10533055551313       -3.11723498399632       -0.95248001683451
H           -2.52057209537220       -2.49351761995207       -0.06843338238706
H            1.33727544507298       -2.92643828835122       -0.05279340970786
25
 energy: 13.194961732585 xtb: 6.6.1 (8d0f1dd)
C            3.38248918093861        1.09622975340353        0.13500081040089
N            2.36182148590076        0.09801435068854        0.04904795465395
C            2.62661432679774       -1.26399892253804        0.09409180744752
N            1.42483656525889       -1.92406362618777       -0.01695706087969
C            0.43104311328896       -1.01744710700146       -0.02428182949080
C            0.95982928814674        0.26692857802828        0.02135225981362
C            0.12886412814155        1.42789000524820        0.00256959432396
O            0.51583630153001        2.59417901232597        0.08170994024126
N           -1.30623299540713        1.09850443630655       -0.13070650653957
C           -2.38939376244899        2.12963592127742       -0.14644567816480
C           -1.80297131545795       -0.16254002733746       -0.07546454731333
O           -2.99827479966931       -0.38358383369822       -0.06681421683080
N           -0.90755187911156       -1.24560385715277       -0.04437515265320
C           -1.43474090584102       -2.58687601028720       -0.05737110348858
H            3.83275481754189        1.12322158711201        1.13415017340648
H            4.17804055846380        0.88433571290747       -0.58746827105442
H            2.93523347125734        2.06243254280624       -0.08137992076310
H            3.58582637915860       -1.71099056187507       -0.06601388064841
H           -1.85823309764586        3.07561562713140       -0.27866917882870
H           -3.45788372605518        1.96942585092664       -0.67319674335446
H           -2.88332776548238        2.12848316967255        0.79224308286505
H           -1.12519396117960       -3.13298656193844        0.83624215029380
H           -1.10490579104058       -3.11779076081319       -0.95304568835033
H           -2.51970724986656       -2.49380220233992       -0.06853778566240
H            1.33744230071742       -2.92618447449328       -0.04864631327662
25
 energy: 13.187291865649 xtb: 6.6.1 (8d0f1dd)
C            3.38263479488814        1.09591049900251        0.13466281470674
N            2.36161705430718        0.09824209566716        0.04867845407567
C            2.62657038595032       -1.26360910913014        0.09422701211075
N            1.42481159066400       -1.92395862049332       -0.01747511890375
C            0.43104030800086       -1.01734442103544       -0.02514702487302
C            0.95976081684077        0.26699232972315        0.02051082045132
C            0.12887199052308        1.42808727908599        0.00238616023703
O            0.51555097317621        2.59411072005067        0.08267021966543
N           -1.30611486656843        1.09849401571367       -0.13205422410565
C           -2.38894065571536        2.12966824796891       -0.14596644583656
C           -1.80293450085791       -0.16254659664694       -0.07563080186613
O           -2.99826031526163       -0.38328781132415       -0.06615695136440
N           -0.90754971013456       -1.24537856144470       -0.04455266110391
C           -1.43464598926877       -2.58680623465469       -0.05696463313850
H            3.83225686684422        1.12340346082826        1.13410090282462
H            4.17838209267644        0.88276298477248       -0.58698975500639
H            2.93661586501955        2.06232157667201       -0.08266278721015
H            3.58437143808270       -1.70960348455409       -0.06551758912639
H           -1.85795644889745        3.07608609455653       -0.27501564387474
H           -3.45660034308882        1.97122423998865       -0.67541953823601
H           -2.88530665748130        2.12470923928750        0.79117533423348
H           -1.12470478495379       -3.13256454248044        0.83669459711048
H           -1.10499586712860       -3.11787983372644       -0.95258984601427
H           -2.51962652785846       -2.49392608291014       -0.06782223685523
H            1.33736715817780       -2.92607888274494       -0.04810716175309
25
 energy: 13.098812618717 xtb: 6.6.1 (8d0f1dd)
C            3.38250708262787        1.09556662576651        0.13454110961784
N            2.36105133590430        0.09874413506825        0.04860116908913
C            2.62662924000339       -1.26315555786048        0.10016536357503
N            1.42463916906908       -1.92383906257853       -0.01761085420311
C            0.43102048719043       -1.01724254388792       -0.02699355206347
C            0.95951767340231        0.26702906909618        0.01889075560593
C            0.12895208663532        1.42836180708488        0.00190341734780
O            0.51441826293311        2.59402591000813        0.08490397452885
N           -1.30589376610883        1.09822952188531       -0.13555914892802
C           -2.38778495755884        2.12964543848678       -0.14589699142325
C           -1.80291727897764       -0.16263845581731       -0.07599373734182
O           -2.99831939770318       -0.38281320538858       -0.06453226309113
N           -0.90754661425972       -1.24508416348434       -0.04535776337576
C           -1.43450508516662       -2.58678525315931       -0.05660540611791
H            3.83060077424851        1.12462060766884        1.13465809424666
H            4.17894965251014        0.87993267967157       -0.58522438291436
H            2.93863006491638        2.06216949980130       -0.08511342723303
H            3.58205513764067       -1.70707623542981       -0.07184359629027
H           -1.85682287302269        3.07682136346593       -0.27064590287641
H           -3.45486832519043        1.97355561530229       -0.67802221783675
H           -2.88636155442051        2.11925547317031        0.79044584244222
H           -1.12403109742627       -3.13186221917418        0.83723533538209
H           -1.10508860755729       -3.11826982444638       -0.95203315001993
H           -2.51950808447529       -2.49420377453222       -0.06703550949309
H            1.33689134272201       -2.92595884854518       -0.04584326247994
25
 energy: 13.047461738239 xtb: 6.6.1 (8d0f1dd)
C            3.38201457237341        1.09575568737132        0.13462903606770
N            2.36071790280093        0.09900633972645        0.04855954178501
C            2.62696661071314       -1.26324904053503        0.10564941855154
N            1.42452065885547       -1.92392411426889       -0.01707753572503
C            0.43105874581914       -1.01738150557013       -0.02789608595787
C            0.95935209245221        0.26692486736226        0.01785435584063
C            0.12949143370382        1.42841176233053        0.00146075021610
O            0.51320547342071        2.59407968113523        0.08678718033612
N           -1.30558976190007        1.09787968805869       -0.13925880107439
C           -2.38655389645732        2.12954140376416       -0.14650230734990
C           -1.80281359908112       -0.16259156321819       -0.07607771819071
O           -2.99829951017878       -0.38237940617427       -0.06235450465467
N           -0.90753637982952       -1.24507037858497       -0.04592173045877
C           -1.43461891051038       -2.58679981552478       -0.05651289589539
H            3.82869291867279        1.12653391872017        1.13538009279299
H            4.17937869673356        0.87871895817930       -0.58346807307253
H            2.93894050242682        2.06217205394056       -0.08704364266696
H            3.58129019160820       -1.70619916055581       -0.07917065839983
H           -1.85550354001548        3.07737211957412       -0.26754592190995
H           -3.45359215364580        1.97542398921579       -0.67927030790646
H           -2.88607749077048        2.11524226272894        0.78948153309922
H           -1.12423789446299       -3.13160218008398        0.83752526542826
H           -1.10519795057362       -3.11863456466255       -0.95172743223981
H           -2.51961966041061       -2.49417371129307       -0.06694350912772
H            1.33622561619216       -2.92602868946383       -0.04352215334026
