25
 energy: 11.464916152144 xtb: 6.6.1 (8d0f1dd)
C            3.41475652504117        1.11243971837659        0.14780998151553
N            2.37472583782721        0.13189825905761        0.00507735928881
C            2.59763236374913       -1.24048982376677       -0.01434490366073
N            1.38136184634957       -1.86494567095246       -0.10478901824371
C            0.39934180505952       -0.94341775259745       -0.03162724458700
C            0.94176801758574        0.33956922154841        0.04940786897158
C            0.02668079405462        1.43722895993883        0.07595221957759
O            0.27913391535461        2.63411515219995        0.09230364585052
N           -1.51368050341496        1.10288658219665       -0.00038816851404
C           -2.50297620851009        2.18048960476685       -0.21077855023176
C           -1.94819858831557       -0.15704232722400        0.21810772418505
O           -3.10446665403781       -0.49655361293054        0.28402319025614
N           -0.93454530730981       -1.19901841104480        0.06166519857936
C           -1.35977759331471       -2.58497914990440       -0.08906883455347
H            3.66476810763626        1.27563443063553        1.22187105954125
H            4.32096744346027        0.80479916258639       -0.41048454306533
H            3.08113189319168        2.06202501262871       -0.27034523871854
H            3.52933253523319       -1.77626642171859       -0.08370724024628
H           -1.89315268309424        3.08086361933511       -0.33947656428169
H           -3.15980926737612        1.99780402625625       -1.08138425542388
H           -3.16112499337538        2.33860414739632        0.65076118849579
H           -0.87059219781857       -3.24863835784571        0.64307622924977
H           -1.17808287783697       -2.95131872490616       -1.11487570602086
H           -2.43333180588015       -2.61523134469786        0.12694996209273
H            1.25237167698966       -2.86770125928829       -0.14092334705981
