25
 energy: 77.033242677930 xtb: 6.6.1 (8d0f1dd)
C            3.57472919128890        0.96772018520061        0.18139825155115
N            2.51104723457067        0.01276774023477        0.13053854083957
C            2.73249639097114       -1.30767578875172       -0.02989151089857
N            1.55286952749056       -1.97303764665193       -0.10008595764573
C            0.51165018567418       -1.07008518280288       -0.02396161910830
C            1.10377610672080        0.23170638371597        0.10830899826018
C            0.39997426134311        1.38093688175110        0.08146213112347
O            0.33207547612189        2.55050585190929        0.31835303179959
N           -2.05646108387311        1.29910356850890       -0.07670960517753
C           -2.92228591351932        2.41317204373545       -0.28351542610179
C           -2.40876217000125        0.19628429034523        0.27734793294110
O           -3.08718221418324       -0.62939548677983        0.73240896786324
N           -0.75315538729021       -1.24854919082176       -0.02164298106376
C           -1.26870012962899       -2.58668484876488       -0.14920789216174
H            3.55753580174942        1.52634089079384        1.11829565937869
H            4.49166098042758        0.40450854590853       -0.03960761208173
H            3.50904182212162        1.79870413562302       -0.51686368515873
H            3.67211180256853       -1.74405052943380       -0.21821940680309
H           -2.26689976482111        3.21793257150419       -0.58064331816440
H           -3.56564192068914        2.21128137910656       -1.12722601736026
H           -3.53744740831274        2.62737971021235        0.58825726476677
H           -0.57145733033336       -3.27845537061046        0.33001188884764
H           -1.40782296025409       -2.78566344708629       -1.21535367573809
H           -2.23630236409898       -2.71549673816660        0.34453882047430
H            1.46297609287500       -2.95436842584109       -0.24949667348910
