25
 energy: 63.033292964113 xtb: 6.6.1 (8d0f1dd)
C            3.75877047026092        0.85589586928612        0.15566581709887
N            2.78685115273804       -0.18005238619553        0.12536994295306
C            3.05000843367611       -1.49938948929175       -0.03472458790722
N            1.87570379588016       -2.18302650084968       -0.08151402737639
C            0.79759676649331       -1.30790610867581       -0.03273710240959
C            1.39457195658251        0.01760178413265        0.10897137794839
C            0.75424093311211        1.16575043939005        0.17165843627818
O            0.33926457695021        2.25510101426594        0.38335666606668
N           -2.91756409194500        1.62435514169366       -0.01975865102794
C           -3.48334858936506        2.86553438411325       -0.32794172128512
C           -3.11472691220142        0.56363287183245        0.46433901516951
O           -3.20964096384740       -0.52754732737536        0.84431330803112
N           -0.44843520896898       -1.49990540165296       -0.06487357146788
C           -1.09829390368956       -2.76214382252341       -0.15590703205089
H            3.62900337015793        1.49196944092946        1.03735968183247
H            4.71396910271973        0.34859630332753        0.23296949763155
H            3.77122411443285        1.45381903670874       -0.76555800170539
H            4.01102456049974       -1.92976956289274       -0.13893218742466
H           -2.64951791987371        3.55033605062079       -0.45559596827905
H           -4.05777170387729        2.77406729530503       -1.24979822567449
H           -4.13960844980724        3.16891917466304        0.48523161958738
H           -0.47495201789830       -3.55341170470160        0.24545892957161
H           -1.33951573953196       -2.93591402953370       -1.20659221517758
H           -2.05580523885330       -2.72096770299196        0.39729385434405
H            1.78271069886842       -3.16783429771767       -0.21441727506371
