25
 energy: 71.043150468015 xtb: 6.6.1 (8d0f1dd)
C            3.64808583997020        0.91867991820829        0.17726809696568
N            2.64901399332773       -0.09431488503090        0.13188391432375
C            2.89575371723535       -1.41021345450299       -0.03243047195886
N            1.72540377981684       -2.09158367520594       -0.08588033313787
C            0.65951532144387       -1.20187401512753       -0.01906348731382
C            1.25616957377133        0.10558822137826        0.12233136509377
C            0.58526969576934        1.25221090439606        0.12149124293885
O            0.40811595835263        2.40107161601219        0.40624529615123
N           -2.51737079253320        1.50786044906854       -0.02797486133371
C           -3.24462794413036        2.66991189475078       -0.30454155931824
C           -2.79064188198425        0.41966491623015        0.34164648557026
O           -3.06408338516982       -0.62755436405114        0.73215689556555
N           -0.59125698192827       -1.36870070723417       -0.03916449489374
C           -1.18595642881447       -2.65860611660928       -0.15376855504807
H            3.50624042088489        1.63474675346263        0.98366150642726
H            4.54045078079224        0.32992858288546        0.33374237998825
H            3.75891742464041        1.54498970455864       -0.70419527002112
H            3.84153537830190       -1.85613195170051       -0.15343978523482
H           -2.45164876150515        3.39463092309727       -0.45826498235274
H           -3.84995918684127        2.51854242756175       -1.19469179204057
H           -3.90113329319577        2.91047904708933        0.53045321145950
H           -0.46103076103925       -3.38701692947994        0.13279999509645
H           -1.52666304628152       -2.83404609228420       -1.18317169688394
H           -2.07324312537324       -2.75043493334790        0.50113694705417
H            1.63308293611869       -3.07356827907136       -0.22188565205463
