25
 energy: 65.164279521210 xtb: 6.6.1 (8d0f1dd)
C            3.72055456804118        0.87175798698365        0.15708640667372
N            2.73581152810785       -0.15245205899437        0.13179635250607
C            2.99277355087363       -1.46976193693218       -0.03360081372677
N            1.82000186652217       -2.15222474494216       -0.08275328856418
C            0.74766095798880       -1.27145893175300       -0.02730992535618
C            1.34552307095836        0.04711660488317        0.11679241964678
C            0.69438363975283        1.19417803890573        0.14431412081235
O            0.37311049615616        2.30801570755096        0.40497996642911
N           -2.77200825405414        1.58062473871878       -0.01712822358749
C           -3.39906587141934        2.79179325323687       -0.31903396133132
C           -3.00435351832625        0.50895050779552        0.42321002515095
O           -3.14036137277852       -0.57362646163648        0.80740866832017
N           -0.49929997020936       -1.45319118725325       -0.05473006018639
C           -1.13604178105277       -2.72199049925452       -0.14843997053348
H            3.58373839475157        1.55126823588989        1.00363922423262
H            4.64273379579908        0.33127705825684        0.31204192930949
H            3.80732001230852        1.41315465466048       -0.79706160244495
H            3.94813767702812       -1.90758366532666       -0.14846677721661
H           -2.58560233082109        3.49484665047662       -0.45693820473926
H           -3.98634020841184        2.67580099773639       -1.22896469841715
H           -4.05889962552488        3.07322970695940        0.50108659754482
H           -0.47603678167795       -3.48504254574196        0.23315765001710
H           -1.39813127501325       -2.89608262492364       -1.19665725785375
H           -2.08151639599068       -2.72364411165512        0.43605193248254
H            1.73089205014870       -3.13636278649680       -0.21535709530838
