72
 energy: -99.269836837246 gnorm: 0.004297562011 xtb: 6.6.1 (8d0f1dd)
N           -1.87190687298346        2.81739020286859        2.21826688132769
C           -1.84488844594921        2.10338919705586        1.19412867977505
C           -3.00206657828510        1.90631261364886        0.25471923817931
C           -3.46552115704112        0.45876779498922        0.31535734101969
C           -4.39519159315050       -0.01028327104084       -0.61507017831003
C           -4.86722878073312       -1.31139247151003       -0.57430001566280
O           -5.77178147911798       -1.83935918307056       -1.42497504553795
C           -6.38571578564289       -1.00794705076521       -2.38141657181100
C           -4.38915876737047       -2.19826872878184        0.42776975794168
O           -4.89941404147160       -3.44587188143047        0.38973925273514
C           -4.54949836315614       -4.35980257735573        1.40257465712249
C           -3.46559302030797       -1.72722045323954        1.34677373814287
C           -3.01327094435953       -0.41447208261746        1.29195673783068
C           -2.45822345081663        2.23186266273814       -1.16148111677155
C           -1.53264796153100        1.15344700593594       -1.75455762064914
C           -0.20067640672664        1.10089302876775       -1.11263899331853
N            0.44354804215340       -0.00948662283656       -0.76314478106506
C            1.80737916673464        0.05391523774801       -0.29637652527432
C            2.81595817074668       -0.35286679600470       -1.38984179131031
C            4.21599881656554       -0.12409444348810       -0.89529632886360
C            4.84673870142934        1.09497455004580       -1.10997326013006
C            6.11867819359189        1.32846353732355       -0.62409229471622
C            6.78392929868692        0.34152861814656        0.10047402487476
O            8.01629561967841        0.46215039029356        0.64822061175976
C            8.84772210477207        1.44315276729345        0.43081387992039
C            6.14849145686808       -0.90938510715225        0.33165263205870
O            6.87245461004797       -1.80059013172924        1.03105527226955
C            6.34324589375687       -3.08372533503423        1.27740856586325
C            4.87299229703745       -1.11658341123796       -0.17164655694230
C           -0.16596433530328       -1.31295534125739       -0.87280299108693
C           -4.22048062905757        2.82104973139033        0.57849293321640
C           -4.83134512927766        2.47658876709972        1.93482748706304
C           -3.88593271155721        4.30915878182739        0.52606983333705
H           -4.76737294815961        0.65872396246258       -1.37299630629745
H           -6.90561696613698       -0.16918426302194       -1.90880985775905
H           -7.11056258799776       -1.63807209182343       -2.89298419716319
H           -5.66181215964941       -0.62801095073610       -3.10977423674388
H           -4.82193467812187       -3.98389618148636        2.39315323888177
H           -5.11855987758450       -5.26272102612471        1.19031477271488
H           -3.48007142422881       -4.59313313106230        1.38136529252598
H           -3.09831574233857       -2.37214470903585        2.12853729457726
H           -2.32019625616741       -0.07558225793899        2.04640368745703
H           -3.30192833678307        2.36046402799922       -1.83862661445533
H           -1.92075609245802        3.18005051904049       -1.12175739555427
H           -2.03210144255892        0.18676442039069       -1.72386181718169
H           -1.37976361911069        1.41759174353483       -2.80932161373417
H           -0.94118432956941        1.57052079469241        0.83899033119805
H            0.35772133931583        2.02281447495342       -1.04690915166245
H            1.92231683819764       -0.60656430673312        0.56763275150476
H            2.03096101216555        1.07404064669380        0.02310812107159
H            2.63255774179140        0.25288416997903       -2.27847756152969
H            2.67317020140198       -1.40176148038673       -1.65056460960508
H            4.34530632148257        1.86996641063821       -1.66889766326672
H            6.58469462670278        2.28444741102204       -0.79795940517976
H            9.78143965883059        1.37359476324377        0.95521199598546
H            8.65741786939318        2.24221037154441       -0.26365179754268
H           11.16361371021772        1.75669181002875       -1.22244547415614
H            7.11607715306328       -3.61467603450542        1.82892413742038
H            5.43568554562206       -3.03115865731148        1.88574032429770
H            6.13323412793689       -3.61506996914647        0.34493007888924
H            4.38048202708221       -2.06311564913042       -0.01387823873534
H           -0.35444741807382       -1.57377980532023       -1.91602861836284
H           -1.11329427393181       -1.33932056376226       -0.32782016356528
H            0.49989131329267       -2.05759607972658       -0.44500573718660
H           -4.97413407100952        2.61685885601753       -0.19059661559131
H           -4.11986831696213        2.68487326326997        2.72721313912247
H           -5.11736413542119        1.42869346275554        1.98261945345245
H           -5.71917866068636        3.08143149765549        2.09858751472528
H           -3.11138540668630        4.54766328527216        1.24829760848802
H           -3.56217138783612        4.61836172523010       -0.46427666532846
H           -4.77380933453423        4.88244399272165        0.77942350188030
H           -1.01915034147786        2.90009507214758        2.76276788609631
