25
 energy: -42.443202756532 xtb: 6.6.1 (8d0f1dd)
C            3.29199268282199        1.27766385961322        0.12380410674216
N            2.39692339352773        0.15541797658411        0.06655091140881
C            2.72623127030006       -1.14459675438575        0.06849203511993
N            1.60111775391187       -1.90222561352491        0.04790303964232
C            0.49717487864740       -1.06876709102129        0.04497395668441
C            1.01228495760944        0.25555808173505        0.04339072155870
C            0.18710857666252        1.39648534859717       -0.00213173234079
O            0.55518546227291        2.57786796339070       -0.01000232751969
N           -1.17069801431389        1.03400403128576       -0.06088546578009
C           -2.15024948766403        2.10193074580757       -0.14577856648866
C           -1.70218971290140       -0.21739112426124       -0.06816828804556
O           -2.89272409867014       -0.39699970569302       -0.18115976605445
N           -0.82062043471213       -1.34449450108541        0.02433354999006
C           -1.47964481379960       -2.54321966515323       -0.05732641187607
H            3.87462549663828        1.25416384384809        1.04644233182843
H            3.97155656400294        1.27180094374483       -0.72923106895416
H            2.69742702397444        2.19165538117704        0.10511211042809
H            3.72657802927889       -1.52606139543666        0.10502861293165
H           -1.60074560697539        3.03795108551721       -0.11426948209903
H           -2.71698525966232        2.03173976273493       -1.07306999658041
H           -2.84575491290059        2.02951162988722        0.68930320489989
H           -0.86458835968023       -3.42006408815360       -0.20679800463670
H           -2.46869892365575       -2.44676020148880       -0.51270680405236
H           -3.67561256748832       -3.69190250419905        0.31742895318294
H            1.58124231987561       -2.91077612548459        0.04649052314711
