  25
        -42.15760258
 C          5.2626946125        0.4303565039       -0.6163687822
 N          3.9516698933       -0.0405833165       -0.5710348097
 C          3.1799534502       -0.1664291202        0.4408877991
 N          1.9247095401       -0.4617031806        0.3823992295
 C         -0.3663951652       -0.5699924551        0.1402617333
 C          0.8900147720       -1.1838911385        0.2354610700
 C         -0.5746287520        0.8874385131        0.2105997593
 O          0.2353203838        1.7650226598        0.3678131314
 N         -1.9412487059        1.0445317376        0.0517768469
 C         -2.6373620980        2.3055067572        0.0579879584
 C         -2.5766354817       -0.1675614544       -0.1101509689
 O         -3.7400885483       -0.3821079165       -0.2764087073
 N         -1.5668401093       -1.1558431354       -0.0466221900
 C         -1.8633346828       -2.5498639113       -0.1955103396
 H          5.6935245680        0.6394373113        0.3717494523
 H          5.8814366164       -0.3094806658       -1.1335120302
 H          5.2850726380        1.3459673920       -1.2168616574
 H          3.5289097982        0.0983698776        1.4548443253
 H         -1.8990891401        3.1046670778        0.0386118425
 H         -3.2894657076        2.3667181700       -0.8140253673
 H         -3.2518758372        2.3916131148        0.9563691292
 H         -1.5519826184       -3.1085539904        0.6888298526
 H         -1.3613841241       -2.9606808074       -1.0736982447
 H         -2.9423414992       -2.6422602844       -0.3208860761
 H          0.9676014730       -2.2623864686        0.2030686928
