25
 energy: 47.574267740100 xtb: 6.6.1 (8d0f1dd)
C            3.27988037803874        1.38319600539242        0.09488108864052
N            2.44283766850092        0.21033743883404        0.05032021126540
C            2.81414587034648       -1.09206742269304        0.05546018313307
N            1.69926570241959       -1.89598041244565        0.02212056637494
C            0.57146865723102       -1.11686326474467       -0.00369297141055
C            1.06367830145515        0.20701237189667        0.02317929870891
C            0.20792385741657        1.33915067127841       -0.00511805196491
O            0.55974937685502        2.51639763661961        0.00394340641731
N           -1.12159603087251        0.95450318369816       -0.03644829804975
C           -2.11552033699532        2.02785983877814       -0.05145887730825
C           -1.61306160049436       -0.35013040966511       -0.04788704896592
O           -2.82839030514011       -0.41285094310726       -0.06702099440181
N           -0.74607185634423       -1.43445603679405       -0.04054251234027
C           -2.26895460519091       -2.91312147860889       -0.08271972932688
H            3.82172099783413        1.43541638006596        1.04138187611428
H            4.00900282537370        1.37966904973981       -0.71615147461784
H            2.66713349964361        2.28206125161902        0.00219174459432
H            3.81978250357841       -1.45396371350435        0.05841694408808
H           -1.54906887980499        2.95651927963785       -0.03070636495557
H           -2.72345659116788        1.96821932821876       -0.95251653769377
H           -2.76202547657157        1.95414352397791        0.82055395075501
H           -2.05896966277119       -3.40346918154536        0.82820609039205
H           -2.02784859880461       -3.38150426241047       -0.99668614989813
H           -3.04121617444456       -2.19150409247184       -0.08640980444140
H            1.73876581449796       -2.90439644441640        0.01924749550900
