25
 energy: 39.097730240708 xtb: 6.6.1 (8d0f1dd)
C            3.45865547025456        1.56390466489344        0.08972948297300
N            2.62840900184015        0.39046372065918        0.06019990879012
C            3.03665740365753       -0.87392980273904        0.04943246228849
N            1.96770887445828       -1.70163077797697        0.01638755612540
C            0.81860860905479       -0.93408551237393        0.00445017074501
C            1.25835307618489        0.39877728053401        0.03496960966410
C            0.30718490020957        1.49390822493823        0.00662015853714
O            0.61161324853620        2.68205086367687        0.00701530633870
N           -0.97231456938358        1.00255786235964       -0.02800883794132
C           -2.07397277679085        1.95072180379302       -0.05234204979851
C           -1.36679844986383       -0.40093837268343       -0.04124737110538
O           -2.55806533164223       -0.60056164989308       -0.06382082888395
N           -0.41661960246668       -1.36323180401188       -0.03087074318042
C           -3.23575924239523       -3.47664509894168       -0.10790260287133
H            3.95590940310819        1.64465843876010        1.05544775837328
H            4.20758773726241        1.51036121422770       -0.69879346525857
H            2.81584149104288        2.43150868991381       -0.05954714770574
H            4.05766843945198       -1.19729617412376        0.06711022841064
H           -1.65511107573885        2.95418567795552       -0.02895489576628
H           -2.67053584221526        1.80823919545016       -0.95424119955980
H           -2.72217398796483        1.78617726994638        0.80889756960755
H           -2.97962389428135       -3.95220083735270        0.81358516853080
H           -2.94855662119841       -3.91725028782992       -1.03742925879138
H           -3.72870332037677       -2.53202022831241       -0.09873608121909
H            2.00059683575339       -2.70988774814588        0.00677985620092
