25
 energy: -4.838908962301 xtb: 6.6.1 (8d0f1dd)
C            3.25485328078743        1.21109120027456        0.08930149826875
N            2.33223458655773        0.11916250488057        0.03141248214263
C            2.64765246689607       -1.22689646343614        0.03397528818853
N            1.47413663630000       -1.93592593397075        0.00604743264908
C            0.42876553166870       -1.08648682118341       -0.00879263068761
C            0.94070373632311        0.21518464050276        0.00840436078451
C            0.12990438386169        1.36953673281214       -0.00781323538639
O            0.48642813694326        2.55341475168389       -0.00898563042277
N           -1.25547906231513        1.01900796755442       -0.03168941944039
C           -2.21023301923711        2.11831535282224       -0.04954072876030
C           -1.78960787156455       -0.23061181754365       -0.04790779622464
O           -2.99243915713619       -0.41427274784221       -0.07087684997810
N           -0.92072275890122       -1.35022019638510       -0.03773173944627
C           -1.58704769581609       -2.64732795981028       -0.06336952968601
H            3.74403239315370        1.25563793799176        1.06789306202697
H            4.02550360648667        1.10263666593827       -0.67933254276782
H            2.70171639277836        2.14013576218434       -0.06909888116478
H            3.62793471728025       -1.64194316093393        0.04604845621234
H           -1.64795579090114        3.05187457945121       -0.02517872296830
H           -2.81498209454910        2.06307532615260       -0.95432436949730
H           -2.86586146777403        2.04483545090804        0.81738565492989
H           -1.34506822496208       -3.23545803870548        0.82577780388558
H           -1.31865192621276       -3.21389639007887       -0.95895637039054
H           -2.65370409001263       -2.45166873393296       -0.07699775027121
H            1.44027012238700       -2.93923280145421       -0.00437352072908
