25
 energy: 4.766688989179 xtb: 6.6.1 (8d0f1dd)
C            3.26097391587317        1.27404603258812        0.09368713096871
N            2.37052954913433        0.14566062043322        0.02264520758508
C            2.71519584813267       -1.19727133696468        0.03851150837305
N            1.55809629561477       -1.93729371376951        0.01274716750075
C            0.46616868094071       -1.14556318210248       -0.00987664684632
C            0.96896984512861        0.17730213295683        0.00188492539007
C            0.16086692965494        1.32891107457466       -0.01348544070591
O            0.50030489243096        2.51673193757862       -0.01600924721839
N           -1.21912503416660        0.97112986554364       -0.03377420955528
C           -2.18081720400646        2.07218087082470       -0.05017260347436
C           -1.73862368218099       -0.28134409529708       -0.04893589766409
O           -2.94849946990572       -0.41638602291903       -0.07167361445020
N           -0.90819262122195       -1.44346662085238       -0.03895975424350
C           -1.76608037691682       -2.68099986235642       -0.06745854033312
H            3.77444639460021        1.31606857977856        1.06174091759319
H            4.02649466726970        1.20979868266130       -0.68811516839998
H            2.68073765050001        2.19784454217290       -0.02681356770122
H            3.70728346717161       -1.58850357104755        0.05088071963886
H           -1.61386373868089        3.00322822533306       -0.02664770249088
H           -2.78603392438251        2.02122266783603       -0.95414957010139
H           -2.83220831313465        2.00492306320115        0.81917494369766
H           -1.61195974861979       -3.30186810931583        0.81739966820852
H           -1.58387978497086       -3.28029838743171       -0.96146738655304
H           -2.78377797041149       -2.31101596684773       -0.07983220911792
H            1.55706522075834       -2.94049985807988        0.00638014801909
