25
 energy: 151.177373725020 xtb: 6.6.1 (8d0f1dd)
C            3.16445526825715        1.10880734564047        0.15398042854030
N            2.25091292918321        0.02186307259619        0.06855813386600
C            2.57895796893057       -1.27650063927137        0.03368143599455
N            1.45718473580571       -2.02677353511306       -0.02080788268740
C            0.40349546011883       -1.17573514793124       -0.02170068112970
C            0.85756233339883        0.16335720055768        0.03202462660425
C            0.05963985407904        1.32158014448615        0.06137456037103
O           -0.75252742032569        3.81064565784002       -0.06252933936344
N           -1.29730830176773        0.93202241453740        0.02284280874085
C           -2.19458657417417        1.92077842072085        0.04261233348363
C           -1.81535912049390       -0.40965590178800       -0.02868563804307
O           -3.01206195647801       -0.62066320625835       -0.05083844107096
N           -0.91670307637959       -1.46677358857470       -0.06795113646083
C           -1.38020517582469       -2.83932721091073       -0.12670854460242
H            3.41855752142206        1.30431096898264        1.19868066401209
H            4.07322265850453        0.89342491631352       -0.40534794076184
H            2.64018298901907        1.96730233632347       -0.25572790350392
H            3.56143058806064       -1.69849799309467        0.02873005242939
H           -1.41128013130714        4.62570625785049       -0.44193272152560
H           -3.20118880823053        1.72902107732717        0.34475614948193
H           -1.63131082611253        2.96267503808278        0.31852296634596
H           -1.00784511732476       -3.42136429943050        0.71947442409842
H           -1.05868800209799       -3.31830865532292       -1.05650353051102
H           -2.46888261819186       -2.83616218061968       -0.08900344393664
H            1.42949231861849       -3.03780445935051       -0.07159076516790
