25
 energy: 24.469822427908 xtb: 6.6.1 (8d0f1dd)
C            3.21283143458285        1.14940197279556        0.12662793470670
N            2.27433218934042        0.07561872799068        0.04448628858887
C            2.59625531384274       -1.28083633501198        0.04213533993860
N            1.40025461467308       -1.96055782094069       -0.01600399638066
C            0.38547775191694       -1.05986940438874       -0.01875767373917
C            0.87107650651196        0.26768691231676        0.03094183134362
C            0.02215120890062        1.48396737545655        0.00407178775228
O            0.15155452533237        2.72896303541286        0.05120835817189
N           -1.33389505299782        1.07151759285293       -0.10293244540783
C           -2.17983048430936        2.33324739338517       -0.12837560894798
C           -1.84979927128441       -0.22540408612579       -0.07099268874924
O           -3.04029260613040       -0.46893207153439       -0.05575011994713
N           -0.94887078495709       -1.33274817460374       -0.05085056610144
C           -1.43969564111172       -2.70022473665833       -0.09024385874734
H            3.61284660983466        1.26117113671172        1.14165365397120
H            4.04577087501971        0.98399451091358       -0.56490120479904
H            2.67276645283296        2.05081276968153       -0.15752776397397
H            3.57613762994433       -1.70859424640514        0.03637478662366
H           -1.74935525746222        3.41139122738762       -0.50473145702147
H           -3.11741365639262        1.95538559215006       -0.55162950888042
H           -2.41489390061561        2.56373179466944        0.91216276850418
H           -1.11284313851028       -3.27253795314775        0.78418342531894
H           -1.10911017678400       -3.22040635899390       -0.99581492413520
H           -2.52757423978392       -2.65946110679184       -0.08816587236621
H            1.34671102281015       -2.97082241968828       -0.05194241685347
