25
 energy: 145.802925550171 xtb: 6.6.1 (8d0f1dd)
C            3.16491506922677        1.09943490830648        0.15511040311758
N            2.25298066196757        0.01074726657504        0.06117454192662
C            2.58527456010063       -1.28750867995271        0.02883001676194
N            1.45794066259131       -2.03354358206141       -0.02435619168323
C            0.40424295108611       -1.18787576276608       -0.02228835464742
C            0.86023712245454        0.14946057531180        0.03289990702385
C            0.06665231646605        1.31213227484946        0.06171229311816
O           -0.80346680762853        3.86076791164998       -0.06284935701247
N           -1.30308995736387        0.92584819986854        0.03773133789998
C           -2.21353955051050        1.89629451693310        0.06645947585447
C           -1.81397897827379       -0.42411807783748       -0.01869675725445
O           -3.01025125082822       -0.63823522998852       -0.04540491371082
N           -0.91743185122088       -1.47931971119745       -0.06591399353417
C           -1.37561679316793       -2.85372897606943       -0.13255119680593
H            3.40465373399875        1.29162709985810        1.20330165417803
H            4.07379749174684        0.88195385501252       -0.40176231153652
H            2.64574955088280        1.96904327276952       -0.23920144731243
H            3.57053816554517       -1.70715261269516        0.02546050732976
H           -1.39526362909012        4.72458608334689       -0.36508675832489
H           -3.24819622686248        1.70638845210203        0.36215092933375
H           -1.62020431159488        2.97490925908553        0.22626682145451
H           -0.99555436731069       -3.43654880423616        0.71005599708873
H           -1.05558349959872       -3.32761455450808       -1.06607811480685
H           -2.46367482260513       -2.85682250210068       -0.08974210922885
H            1.43844311852267       -3.04557306258153       -0.07274359100715
