25
 energy: 130.461204512451 xtb: 6.6.1 (8d0f1dd)
C            3.16077604542585        1.06445169487182        0.13992203967897
N            2.28202269630341       -0.06718524849157        0.06996304155188
C            2.61844107945823       -1.36252151913450        0.02561205921486
N            1.49947627689670       -2.12442471626676       -0.02472644404727
C            0.42367858619237       -1.29285812044063       -0.01343194982362
C            0.89738590847619        0.02692518978285        0.05270377121562
C            0.11995690696812        1.17597313249279        0.05553360980557
O           -0.99288865928026        4.33117600992207       -0.02342136578270
N           -1.24111934762785        0.84866997838863        0.01258524845825
C           -2.11866926972611        1.84339027635062        0.04590992624917
C           -1.80088483176478       -0.48106624561620       -0.03215398857663
O           -2.99635871249770       -0.68702245308527       -0.04805323926531
N           -0.90852848044431       -1.54795064427712       -0.05362060272781
C           -1.41378206671042       -2.90389211347617       -0.12617110854778
H            3.47499922228782        1.24161847622566        1.17029179056084
H            4.04122246745283        0.90111261692114       -0.47960719746109
H            2.60936594767241        1.94045897825622       -0.20566731151688
H            3.61412234089672       -1.74634318425127        0.02856339926390
H           -1.34941561185983        5.19124369048440       -0.20395902442342
H           -3.16385273323086        1.59931568720104       -0.09718959084971
H           -1.74015414585385        2.86636883571083        0.09071557813018
H           -1.05398330618578       -3.48273523770890        0.72649102056253
H           -1.09898444292555       -3.37836735976768       -1.05856999686749
H           -2.50149855043780       -2.85730469846801       -0.09689401061718
H            1.48286085598576       -3.13264583689876       -0.07456541390464
