25
 energy: 130.191355469303 xtb: 6.6.1 (8d0f1dd)
C            3.16599944155091        1.05917478905997        0.14215735023973
N            2.27691716626903       -0.06366537577130        0.06705050666125
C            2.61477956829000       -1.35935093717635        0.02352005210004
N            1.49712857766643       -2.12000436535035       -0.02860761296335
C            0.41983227085249       -1.29404542732039       -0.01291966885577
C            0.88740221122037        0.02991827323632        0.05016373087281
C            0.10028420249183        1.17092542753577        0.04982698950078
O           -0.87304532007978        4.35109448126959       -0.01999922895588
N           -1.25395588275707        0.84394634647364        0.01399237998222
C           -2.11881876900705        1.84763616990116        0.03688950365708
C           -1.80568710432913       -0.48417667133789       -0.02571099938990
O           -3.00163221857024       -0.68283244826814       -0.04041726175342
N           -0.91239996660018       -1.55165145833158       -0.04873231672749
C           -1.40828360355881       -2.91057724568947       -0.12606240077136
H            3.48126640203956        1.23806632302981        1.17212864106337
H            4.04729116539527        0.89474844967267       -0.47663412842874
H            2.61933192656938        1.93462135440100       -0.20372200241611
H            3.61183260779712       -1.74655844528692        0.02781765595374
H           -1.35082993515860        5.15787100445302       -0.23297308673266
H           -3.16967835417581        1.61312096277151       -0.03709058990773
H           -1.69663429578462        2.88507266421918        0.02262285806577
H           -1.04656015069949       -3.49417372832821        0.72293895624454
H           -1.09156313030200       -3.37703604068894       -1.06134809751941
H           -2.49563549525271       -2.86502675764037       -0.09812998056828
H            1.48803598568021       -3.12782260765787       -0.06976990480741
