25
 energy: 134.206172440275 xtb: 6.6.1 (8d0f1dd)
C            3.16976365241412        1.05915408826233        0.14134401929335
N            2.27850750194477       -0.05839884969953        0.06223231126217
C            2.60358444104039       -1.36023617129375        0.03384471851179
N            1.47669105069565       -2.10318496353851       -0.02679480234834
C            0.41189856526055       -1.26530574917882       -0.01717153718193
C            0.89360485456619        0.05727281041678        0.04405854616755
C            0.12104526197746        1.21773864338413        0.08135797121791
O           -1.00558447720769        4.14611387363258       -0.06037168245289
N           -1.24871280503800        0.85207878405576        0.02078053856435
C           -2.17503720026538        1.79961296882766        0.02746225011959
C           -1.79801012553779       -0.47663460447992       -0.03105930052427
O           -2.99439989842689       -0.67762837434168       -0.04252334111172
N           -0.91254579472228       -1.53994704576658       -0.04790645849507
C           -1.40528742563144       -2.89845519408467       -0.12650603873012
H            3.48766100638496        1.23444149985257        1.17410446007509
H            4.05144767338479        0.89272345833858       -0.48054988184849
H            2.62280334094682        1.93716157838231       -0.20062444325654
H            3.60109193601592       -1.74303672745531        0.02548068651306
H           -1.09652786655692        5.11616732108991       -0.12451027725361
H           -3.23082891738812        1.53263637710196       -0.11169257366233
H           -1.75826824864275        2.84618929064000        0.05662344000136
H           -1.04161805804127       -3.47936478905155        0.72177359088315
H           -1.09639535073527       -3.36955818916433       -1.06231039041995
H           -2.49236456846086       -2.85887471962955       -0.09578166300212
H            1.46556857280048       -3.10897622186667       -0.06964433993951
