  72
        -99.30646176
 N         -1.7571638703        2.7995866061        2.5259444525
 C         -1.7479714449        2.0811184655        1.5010902928
 C         -2.8848416095        2.0017931359        0.5184402544
 C         -3.4358957878        0.5805488181        0.4901344280
 C         -4.2735039083        0.1949740352       -0.5838963167
 C         -4.8574280270       -1.0708570710       -0.6302732622
 O         -5.6621628926       -1.5101464928       -1.6320555726
 C         -6.0132687444       -0.6240528893       -2.6683844758
 C         -4.6349482402       -1.9908516730        0.3948813017
 O         -5.2462214118       -3.1829986004        0.2835757280
 C         -5.1411290859       -4.1275046855        1.3216980007
 C         -3.7681529379       -1.6587604277        1.5619581710
 C         -3.1812609904       -0.2892362694        1.4976755906
 C         -2.2985519065        2.4168021156       -0.8535229294
 C         -1.4199207333        1.3467525272       -1.5248100000
 C         -0.0944628174        1.1867165473       -0.8874220896
 N          0.4951321826        0.0223376285       -0.6122457513
 C          1.8888599342       -0.0155969895       -0.2407375301
 C          2.7961988529       -0.3474025004       -1.4421590427
 C          4.2375101460       -0.2333882687       -1.0329096883
 C          4.8973773722        0.9809073262       -1.1156614384
 C          6.2138587397        1.1034628575       -0.6980472481
 C          6.8953568162        0.0109851405       -0.1833396807
 O          8.1694160251        0.0158909011        0.2572074850
 C          8.9059337736        1.2156125907        0.2062945322
 C          6.2277754669       -1.2404957100       -0.0979804914
 O          6.9665921132       -2.2516706164        0.4066802841
 C          6.3999831564       -3.5361321734        0.4989946310
 C          4.9116106518       -1.3388322707       -0.5188246652
 C         -0.1786421055       -1.2378061867       -0.8071911804
 C         -4.0890339180        2.9191459728        0.8820956673
 C         -4.7028380946        2.5333006468        2.1627969619
 C         -3.7186174389        4.4192678471        0.9314049357
 H         -4.4850221128        0.8992930266       -1.3679464418
 H         -6.5386745904        0.2562648529       -2.2855438706
 H         -6.6830770195       -1.1870627929       -3.3154939081
 H         -5.1381338086       -0.3079721874       -3.2457748570
 H         -5.5512612774       -3.7422836575        2.2599717602
 H         -5.7289439732       -4.9848277965        0.9993042765
 H         -4.1050172386       -4.4401955764        1.4835158788
 H         -2.9532159370       -2.4015497554        1.6311108210
 H         -2.5647027940       -0.0067905623        2.3366608191
 H         -3.1184680798        2.6572001061       -1.5301617389
 H         -1.7096438548        3.3250220910       -0.7180351619
 H         -1.9612273301        0.4032698333       -1.5678543563
 H         -1.2520692548        1.6803536053       -2.5576900610
 H         -0.8893265586        1.4629295678        1.1854862906
 H          0.5015196103        2.0736893539       -0.7384624122
 H          2.0336788661       -0.7641282508        0.5427592447
 H          2.1797557900        0.9577100193        0.1597085013
 H          2.5806271025        0.3580010519       -2.2466339203
 H          2.5803413082       -1.3554365846       -1.7980749277
 H          4.3911254346        1.8448829574       -1.5190538865
 H          6.7028317473        2.0600050966       -0.7821196530
 H          8.4412704412        1.9974577982        0.8151207141
 H          9.0206675159        1.5725185814       -0.8217413421
 H          9.8851041261        0.9744968342        0.6155413037
 H          7.1828013597       -4.1720058765        0.9079778869
 H          5.5371945139       -3.5476046796        1.1732388499
 H          6.1023254914       -3.9158592218       -0.4835560107
 H          4.3968742490       -2.2852890420       -0.4623396557
 H         -0.3327302385       -1.4495728257       -1.8682023871
 H         -1.1499497035       -1.2274880446       -0.3076335164
 H          0.4249115324       -2.0350826396       -0.3800004886
 H         -4.8358673717        2.8055060945        0.0863365925
 H         -4.0924608992        2.2141299112        2.9823498004
 H         -4.3287228821       -1.7702669102        2.4990042621
 H         -5.7354981875        2.7608990611        2.3448104377
 H         -2.9280331790        4.5774907493        1.6566918815
 H         -3.4027083549        4.7732747098       -0.0457479010
 H         -4.5905395318        4.9912292864        1.2365235828
 H         -0.9198457032        2.7959484619        3.1010969599
