  25
        -42.05684702
 C          2.7484993285        0.4951919836       -0.4630951853
 N          1.7562705148       -0.5482424914       -0.2330170834
 C          2.2412282059       -1.7976030869        0.1379901335
 N          1.5559246912       -2.5781260799        0.8442145106
 C          0.4613595423       -0.1938562489       -0.1537758097
 C          0.7744840915        2.2784946052        0.7484539184
 C         -0.0144144068        1.1776742356        0.1158917207
 O          0.5401603168        2.3346792132       -0.5108282398
 N         -1.4205931480        1.0844655839        0.1743733722
 C         -2.3132739725        2.1791061150        0.4730934984
 C         -1.8203241441       -0.1953085409       -0.0294394388
 O         -2.9174536957       -0.6555142092       -0.0555081106
 N         -0.6172487908       -0.9676823640       -0.2444824800
 C         -0.7534918474       -2.3452798587       -0.6119543097
 H          2.8039384624        1.1675341082        0.3995656997
 H          3.7242747849        0.0382725892       -0.6051846644
 H          2.5021854186        1.0744522456       -1.3528250901
 H          3.2647205911       -1.9649258998       -0.2039908175
 H         -2.0832362496        3.0376162041       -0.1613997856
 H         -3.3287269399        1.8368083061        0.2753259604
 H         -2.2231528076        2.4690752517        1.5233885121
 H         -0.3326027799       -2.9890496236        0.1671770856
 H         -0.2359689164       -2.5479018883       -1.5493117500
 H         -1.8213255448       -2.5407528447       -0.7182819995
 H          1.9789282298       -3.4597918947        1.1082839782
