25
 energy: -42.082984365710 gnorm: 0.003635083026 xtb: 6.6.1 (8d0f1dd)
C            2.90284517190900        1.13526269679761        0.02069536491038
N            1.96632569389904        0.02172154460225       -0.00792198740205
C            2.44638211456261       -1.18698363603114       -0.01832653583427
N            1.79057506436175       -2.37617070132321       -0.01938669244593
C            0.48757086920755       -2.79299557027920       -0.00729368974743
C            0.58562250350907        0.31349336290274        0.00672388749736
C            0.00952430440455        1.66703525519860        0.00038768004895
O            0.52316678131525        2.76019835836661       -0.01995400795398
N           -1.34369585409218        1.44696066670187        0.02435724720934
C           -2.43379640430611        2.37254987736950       -0.01280898576303
C           -0.46962203257139       -0.55991594973624        0.01334260838784
O           -1.63208992824690        0.09998557407499        0.02240352089426
N           -0.53019365098264       -1.95889386688207        0.00921093318409
C           -1.85580915441847       -2.57692048552132        0.00918199725242
H            3.33812361284007        1.23065838547005        1.01635708930075
H            3.69825136717388        0.97550130242043       -0.70431554962004
H            2.38157351687506        2.06361238193002       -0.21025241267755
H            3.52854685898325       -1.26007566920746       -0.02611917784126
H           -2.00304318645675        3.37002495909153        0.07197784058424
H           -2.97957035476426        2.28450187291916       -0.95401286920155
H           -3.11010122158625        2.18753419253859        0.82274411886946
H           -1.94916867756134       -3.23062553437206        0.87410432414460
H           -1.97588125470999       -3.17536594955799       -0.89184511035443
H           -2.62907234314814       -1.81628153247266        0.04428024360016
H            2.41396771790346       -3.17657299340102       -0.03235821914279
