  25
        -42.13588288
 C          3.3325810510        1.3991628975       -0.0022401518
 N          2.4487468872        0.2627878574        0.0007147185
 C          2.7890523721       -1.0191968831        0.0071809182
 N          1.6911969247       -1.7943341196        0.0214197179
 C          0.5883859913       -0.9780376529        0.0241327418
 C          1.0832544407        0.3325283792        0.0118516799
 C          0.1681411281        1.4523419822       -0.0084260787
 O          0.4897264552        2.6235525528       -0.0398888645
 N         -1.1476543949        1.0244580821        0.0078866395
 C         -2.1869104998        2.0337257471       -0.0040038555
 C         -1.5941784698       -0.3208381338        0.0261992346
 O         -2.7868846365       -0.5315313479        0.0322845006
 N         -0.6757366324       -1.3191606538        0.0314981914
 C         -3.6446272781       -3.3603753501       -0.0935761456
 H          3.8722125042        1.4614203437        0.9439047803
 H          4.0538017566        1.3189122696       -0.8138680619
 H          2.7352028347        2.3021697561       -0.1290856806
 H          3.7972286191       -1.3887112653        0.0005077739
 H         -1.7118727376        3.0130707583       -0.0022402807
 H         -2.8093370408        1.9156246668       -0.8922536973
 H         -2.8245932490        1.9175326466        0.8734334159
 H         -3.4661786225       -3.9138358904        0.8083388825
 H         -3.4870642991       -3.8319346799       -1.0446238686
 H         -3.9444341106       -2.3295769915       -0.0436709809
 H          1.6735615715       -2.8042484969        0.0286891094
