  25
        -42.16774854
 C          3.2149290593        1.5089366239        0.0131169075
 N          2.8100645914        0.1934026381       -0.4078998744
 C          2.6561443073       -0.9937371161        0.1632837979
 N          1.4863649496       -1.5837696031        0.3060620509
 C          0.2005497972       -1.0731396353        0.1726514902
 C          1.8746179667        1.2501752510       -0.5767120606
 C         -0.1372201377        0.2527601571        0.1455220452
 O          0.7588445798        1.2789898826        0.2493440375
 N         -1.4284552944        0.6655794510        0.0783746603
 C         -1.7488188073        2.0776745627        0.1648842714
 C         -2.5074962822       -0.2367320434       -0.1051097240
 O         -3.6301952192        0.1602241616       -0.2408367634
 N         -2.1571682405       -1.5397608013       -0.1740540103
 C         -0.8864026675       -2.1213380070        0.1781775410
 H          3.2785379640        1.6931957927        1.0783790539
 H          3.9764388316        1.9798347723       -0.5926168434
 H          1.6729204654        1.5401133176       -1.6049083745
 H          3.5510584178       -1.5420116413        0.4244292051
 H         -1.1826944841        2.6491828425       -0.5708421554
 H         -2.8153638223        2.1759144848       -0.0313392296
 H         -1.5224971947        2.4559477968        1.1625493564
 H         -0.9435859667       -2.5923571017        1.1753580665
 H         -0.6531956125       -2.9088740583       -0.5512990679
 H         -2.9351437809       -2.1756158930       -0.2823331610
 H          1.5019195698       -2.5709681706        0.5456526062
