  25
        -42.05783549
 C          3.4867407602        2.3316317698        0.1523641542
 N          3.8397384127        1.4184780456       -0.6111830821
 C          1.8943267988       -1.1739255275        0.1246586942
 N          1.0712236037       -2.3442121065        0.1496328160
 C         -0.0327115229       -1.5351956081        0.0847141511
 C          0.7994159837       -0.3373663006        0.1027068546
 C          0.2234423282        0.9728195210        0.0756848578
 O          0.7783917696        2.0416540544        0.0842593655
 N         -1.1960149150        0.8685825519        0.0258016260
 C         -1.9450418040        2.1241320578       -0.0067774187
 C         -1.9848673617       -0.2403526091       -0.0091040972
 O         -3.1775906444       -0.2255753989       -0.0607702465
 N         -1.3218587608       -1.5640111762        0.0205966689
 C         -2.1544350547       -2.7430870733       -0.0268413499
 H          3.2844804032        2.0971510732        1.1897115992
 H          4.0469237589        1.6166881997       -1.5845466242
 H          3.3654768596        3.3801212804       -0.1224484698
 H          2.9630162098       -1.0995979264        0.1269005486
 H         -1.2291354430        2.9411784619        0.0247798601
 H         -2.5378983481        2.1800834880       -0.9186164052
 H         -2.6150201620        2.1791232985        0.8499084191
 H         -1.9263266249       -3.3985361467        0.8127031610
 H         -1.9921270760       -3.2811885518       -0.9614483489
 H         -3.1950339631       -2.4216088493        0.0252487627
 H          1.2454046320       -3.3267482858        0.0269114795
