25
 energy: 0.000000000000 xtb: 6.6.1 (8d0f1dd)
C            3.23720132972391        1.16630909158653        0.08434468864950
N            2.29877796055224        0.07527476373246        0.03981602671198
C            2.58028186251803       -1.21425391179017        0.03006175752192
N            1.43813944744728       -1.93419254010258        0.00098261751768
C            0.39035684826767       -1.05887462812143       -0.00790371763344
C            0.93510047688824        0.21347817468824        0.01709077332874
C            0.09450143016486        1.40504290868848       -0.00410946993748
O            0.49712746915594        2.54126690785742       -0.00342325656480
N           -1.25076628431515        1.06271869620815       -0.03085477937476
C           -2.21907191394203        2.15522079838987       -0.05001256521996
C           -1.81739470187490       -0.20012724136556       -0.04692818139228
O           -2.99983858926755       -0.37846413507442       -0.07008877579474
N           -0.92618577614240       -1.30210203518959       -0.03682761236648
C           -1.46982251276835       -2.64643077634382       -0.06029819901142
H            3.71247229913541        1.21471443890471        1.06488839270555
H            4.00791460421487        1.03430799217987       -0.67357688121503
H            2.69909982127087        2.09770098766290       -0.09130154035862
H            3.56654087521359       -1.63682977417947        0.04233139674524
H           -1.67107945562430        3.09322822573871       -0.02552706696334
H           -2.82428927394145        2.09428605349656       -0.95318074103337
H           -2.87644002486466        2.07745706351925        0.81450059976605
H           -1.17061985538665       -3.19584861009707        0.83242224714061
H           -1.14560246782873       -3.17511580834413       -0.95688266944647
H           -2.55549768731684       -2.55659960601237       -0.07459039105944
H            1.38130842369251       -2.94313824728853       -0.01389874052104
25
 energy: -5.405816908713 xtb: 6.6.1 (8d0f1dd)
C            3.29268949569886        1.16223240953372        0.10376176794472
N            2.32059421810398        0.11427410482132        0.02613118697826
C            2.60030339229255       -1.24677974356355        0.02364221391663
N            1.39951139890426       -1.92353559359707       -0.01940041373070
C            0.39516619905096       -1.02698011035114       -0.01300051710747
C            0.91968751143822        0.25719891535245        0.01846437105581
C            0.07494542722361        1.39494350567778        0.03152084522629
O            0.44118199336662        2.57463042597346        0.01592974017615
N           -1.33462685039178        1.05746888911941        0.00776309011035
C           -2.29553991325186        2.15326539011276       -0.08807673732380
C           -1.85904193193003       -0.19427744976451        0.02997454722872
O           -3.05182023516015       -0.41142153524368        0.00280465148730
N           -0.94699829206923       -1.27061845048688       -0.00259626825040
C           -1.44366949978554       -2.62642659610771       -0.06700727380366
H            3.73807685694972        1.23549095704811        1.11183728310580
H            4.10099609580532        0.98960568852673       -0.61592671280717
H            2.80009963104340        2.09984663100505       -0.13681658874035
H            3.56888736085047       -1.69399126434615        0.02967918319881
H           -1.71178823558189        3.07226560198911       -0.10683588898748
H           -2.90900724979044        2.07617484240470       -0.99287291148522
H           -2.95983692095608        2.14655476734555        0.77730110966797
H           -1.08875051655179       -3.21024281642180        0.78652176280956
H           -1.14779143847483       -3.11730634741071       -1.00007590573293
H           -2.52956420490586       -2.56327566019012       -0.01951928983508
H            1.31961503657050       -2.92828942910246       -0.03141366208253
25
 energy: -1.305590702213 xtb: 6.6.1 (8d0f1dd)
C            3.34092757536090        1.14289414339606        0.12426772380647
N            2.33891602075306        0.12153890149172        0.01058041334819
C            2.59402400164445       -1.25936427674447        0.00829088858104
N            1.37292046061906       -1.90149073290011       -0.04559949234383
C            0.38806731694065       -0.98558361414143       -0.01277070951411
C            0.92073180454789        0.29664986007977        0.02565470467605
C            0.04903198882055        1.42155713557958        0.05599045532179
O            0.36846041862780        2.60635398580649        0.03724309236324
N           -1.40201126425380        1.07216010505376        0.03735757599917
C           -2.36994048882695        2.16348531926573       -0.13159609933039
C           -1.89532287367975       -0.18795948883509        0.10965642138872
O           -3.07886490650283       -0.44259418108623        0.10545701013841
N           -0.95191589497309       -1.23999998366338        0.03589819608194
C           -1.41371931391336       -2.61118516787457       -0.07207288874119
H            3.74010625748878        1.25032416397331        1.16185220649635
H            4.18449698883374        0.92046217529828       -0.54416807974296
H            2.90454947192231        2.08898865487919       -0.18417769109596
H            3.55025051457802       -1.74424976891518       -0.00488125507368
H           -1.77190631887058        3.07332763040272       -0.19781185487081
H           -2.99082192891969        2.04732733763521       -1.03434379511800
H           -3.03659999845358        2.22074924798500        0.73167154007645
H           -1.00844261780078       -3.22872314105336        0.73698637301160
H           -1.15670211811118       -3.05379791968110       -1.04336401335049
H           -2.49875387284535       -2.58287831362903        0.03575207822944
H            1.26824712364304       -2.90555772157231       -0.06872819197093
25
 energy: 5.571140780659 xtb: 6.6.1 (8d0f1dd)
C            3.38116687045916        1.12047860553346        0.13511351377717
N            2.36035654203190        0.11939624122462        0.00129068079184
C            2.59470453874778       -1.26250011988903       -0.00745855887319
N            1.36806195324859       -1.87978602163465       -0.07609037134866
C            0.38965237006329       -0.95053012317249       -0.01795722052173
C            0.93422899735569        0.32642113098393        0.04205277149721
C            0.03339885983892        1.44328227009914        0.07694434763589
O            0.30617749460896        2.63289761040357        0.06132662151743
N           -1.47189891317590        1.09008499326585        0.02879288036150
C           -2.44615906112490        2.17445067569395       -0.17513564031120
C           -1.93093426344796       -0.17268813660370        0.17858858874322
O           -3.10035835214656       -0.47423786632668        0.20840025823323
N           -0.94594847679018       -1.20776723818705        0.06645805088192
C           -1.38246154639404       -2.59293235665533       -0.07873266168028
H            3.68058362607655        1.24712268990495        1.19799016147469
H            4.26404171010930        0.85309611189737       -0.46912305701975
H            3.00798442818734        2.07334164607579       -0.23611653299790
H            3.53302212710141       -1.79026945405132       -0.04313190445417
H           -1.83610148896558        3.07570821289669       -0.28152295099169
H           -3.08537308123402        2.02026602305734       -1.06238463777118
H           -3.10810805321485        2.29113327197161        0.68851899070980
H           -0.93022821974006       -3.23992142954076        0.68561375584361
H           -1.16657945410557       -2.99236268749922       -1.08324149904574
H           -2.46291070648268       -2.59979922978707        0.08901697649174
H            1.22972036229709       -2.88189152183319       -0.10903542628791
25
 energy: 12.710507768246 xtb: 6.6.1 (8d0f1dd)
C            3.42371355703063        1.10911039621140        0.14932877004693
N            2.37667803648768        0.13427573112309        0.01030338868401
C            2.59812737269498       -1.23709852050449       -0.01706590956557
N            1.38386577420409       -1.86266880745483       -0.11669980503497
C            0.40141068382246       -0.94428216953441       -0.03743176079307
C            0.94273559824704        0.34027853876052        0.04865035657825
C            0.02924447974371        1.43790103600295        0.07927722578468
O            0.27428083429716        2.63632932720295        0.11088036783592
N           -1.51778768771921        1.10926710114985       -0.02121328839632
C           -2.51702586469665        2.18306112540381       -0.22269865585560
C           -1.94736253565438       -0.14873396160073        0.21202486067552
O           -3.10037903892028       -0.49751738636918        0.29887541420577
N           -0.93260111150331       -1.19596935115802        0.05404915774558
C           -1.35478811134431       -2.58303862158699       -0.09114096593167
H            3.65927301551747        1.29604808193199        1.22136498880782
H            4.33376752712044        0.78758184957505       -0.39459738121436
H            3.11030676690010        2.05593299014129       -0.28742760949575
H            3.52956276318036       -1.76977131312105       -0.09653596079375
H           -1.90947469839584        3.08419716236794       -0.35557978242918
H           -3.18082595575765        1.99329558245842       -1.08723079459256
H           -3.17359536237284        2.34975901881822        0.63915179456167
H           -0.85464312742278       -3.24954805371141        0.63260525310852
H           -1.18179548374407       -2.94433468076086       -1.11969696848581
H           -2.42528647868932       -2.62036714241577        0.13740272546188
H            1.26230711242452       -2.86548811301983       -0.15149555659600
25
 energy: 22.397080365397 xtb: 6.6.1 (8d0f1dd)
C            3.45244054860474        1.08674423779349        0.15673397538895
N            2.38419091107932        0.12793778612751        0.04047653171416
C            2.61085249648423       -1.23271294058402       -0.05481922672609
N            1.40672236586079       -1.86942583127525       -0.14311939334865
C            0.41106086816785       -0.96278212682331       -0.05507953558945
C            0.94588984238575        0.32648762854021        0.04754774184874
C            0.05247993153222        1.43826840824582        0.12111239541994
O            0.26026372662420        2.63922931522763        0.18929092826484
N           -1.57971742701291        1.13359819379428       -0.01910416690133
C           -2.59458261350679        2.19489195344756       -0.26304861459583
C           -1.97800867805874       -0.12378798480693        0.19337066323248
O           -3.10237256582860       -0.52061909646261        0.37134019115528
N           -0.92735291841878       -1.18581751003723        0.00494627070680
C           -1.33402955448487       -2.57462396004259       -0.10752703898004
H            3.64328950059873        1.36104169823595        1.21105781979368
H            4.37041219837130        0.70546752312237       -0.32600332171755
H            3.19914416300793        2.01710487018230       -0.34195021249650
H            3.54258297272307       -1.74104140818175       -0.15955376636804
H           -1.98897967047003        3.09413221274103       -0.42590851585913
H           -3.27820029231280        1.96647850260480       -1.10737852559276
H           -3.24675892444963        2.41459631526743        0.58872337439602
H           -0.78398709214682       -3.25051776443115        0.57542751037579
H           -1.21730535645634       -2.90481227037609       -1.14932067940460
H           -2.38741264668896       -2.64401027594607        0.18217204009629
H            1.30560878770220       -2.86781881908389       -0.19922387255469
25
 energy: 39.357623050127 xtb: 6.6.1 (8d0f1dd)
C            3.48421475664944        1.05400605884352        0.16392694490428
N            2.40761169555930        0.10560608380274        0.06433412880409
C            2.62927763586967       -1.24740414125844       -0.05083438030937
N            1.42593059405856       -1.88421606697806       -0.14244288946459
C            0.42461428555466       -0.97436686597940       -0.04556520487403
C            0.97293571326512        0.31571901017167        0.06566425139466
C            0.11645296623768        1.43985395610706        0.13749231277968
O            0.25921300405661        2.63802331303537        0.26313355239457
N           -1.67370858759762        1.16414669961988       -0.04139047403001
C           -2.67374014462267        2.23781753959751       -0.27047008950288
C           -2.04022206546799       -0.07747387129849        0.19311350076430
O           -3.10886292969776       -0.54652268289456        0.46280732664658
N           -0.91148322867816       -1.17322184345571       -0.03184421283553
C           -1.31702377950836       -2.56177741988547       -0.12284280318466
H            3.62488406133457        1.42022937069491        1.19139595725514
H            4.40497841086679        0.61325667367263       -0.24909955028718
H            3.28909648911615        1.95792101305214       -0.39875742686734
H            3.55440253095083       -1.73583258211017       -0.22990536300412
H           -2.06314003937454        3.11777085067646       -0.48298623471169
H           -3.38381138936175        1.98383459819106       -1.08146210429519
H           -3.33060725276120        2.49024622561914        0.56160240593018
H           -0.71823558267026       -3.24214907643444        0.51121945389136
H           -1.26730637532798       -2.86018361873189       -1.17537083285672
H           -2.34902699851791       -2.66534730825395        0.22576653375901
H            1.32273145007591       -2.87451683093324       -0.24783149267250
25
 energy: 59.731693779461 xtb: 6.6.1 (8d0f1dd)
C            3.51661943545260        1.01784700959498        0.17074541152161
N            2.43831423491666        0.07525919036286        0.09492521734839
C            2.66292363104713       -1.27174937580372       -0.01196467125148
N            1.46073405005310       -1.91316374290553       -0.10244383205619
C            0.44790069232551       -1.00667862738711       -0.03380328587293
C            1.01599810634642        0.28892966161329        0.08346842466153
C            0.23135192642910        1.42975905221593        0.11094199071349
O            0.28612232832797        2.61813357829570        0.29132844831260
N           -1.79980079444158        1.20520838834900       -0.06718911772798
C           -2.75560533941350        2.30095723653804       -0.25190775598758
C           -2.14913359337193        0.01135079332827        0.22184105933222
O           -3.11580672726625       -0.57687414727306        0.56885984691376
N           -0.86556371081383       -1.18813220523107       -0.01778309525793
C           -1.31190185148047       -2.56169192167624       -0.12981436906780
H            3.59657404581470        1.46929570341463        1.16352886656068
H            4.43727975098607        0.52093653348305       -0.16452490546506
H            3.38200764905306        1.88981125784665       -0.45418484613245
H            3.58953477341495       -1.72518527158399       -0.26246417532408
H           -2.13254761733278        3.14792899573515       -0.53162758198140
H           -3.45804924339219        2.06979510070610       -1.06041499313353
H           -3.37251283322226        2.54371584049834        0.61369048079652
H           -0.66297798018158       -3.24494551360334        0.44141767728082
H           -1.32171256416330       -2.81527781306299       -1.19599503455409
H           -2.31549242755138       -2.68714728954108        0.27284697787356
H            1.38135042924640       -2.89668360682847       -0.26353701410015
25
 energy: 75.198949549676 xtb: 6.6.1 (8d0f1dd)
C            3.55642412068876        0.98235126318591        0.17557144165788
N            2.48856290059556        0.03134478661965        0.12482246669514
C            2.71138306704898       -1.29379357726526       -0.02866724488237
N            1.52403443332126       -1.95257049944338       -0.10183333170233
C            0.48855470511445       -1.04897793956886       -0.02725452209644
C            1.07772352173993        0.24977475052631        0.10461283404252
C            0.36381237495995        1.40195416510489        0.08306657305077
O            0.34172513615703        2.57490469763546        0.30803781743218
N           -1.98018460624481        1.26996248088390       -0.07561417712085
C           -2.86604609108062        2.38309495656949       -0.27420822010228
C           -2.32968380483571        0.14388532725850        0.25614600491524
O           -3.10256019094964       -0.62011537008226        0.68087071308892
N           -0.78640157317946       -1.22950795924437       -0.02688952453408
C           -1.28109923492099       -2.57939034241008       -0.15149401139815
H            3.56616211446141        1.51688343417643        1.12518729022640
H            4.47405863899626        0.43867314331170       -0.07996405489860
H            3.47695048961963        1.82050061191043       -0.50671893043545
H            3.64896047062524       -1.72678957692615       -0.25639563675656
H           -2.21238005018102        3.19163516064776       -0.57129634350950
H           -3.52778220566068        2.17651741118452       -1.10823756219938
H           -3.47708422144767        2.62547561449214        0.59207203684358
H           -0.60127087609272       -3.26617331021192        0.36476093104671
H           -1.37155637253235       -2.78699633935861       -1.22177064637984
H           -2.26106970931235       -2.70574648807927        0.31579886127485
H            1.44392662009248       -2.93281699631291       -0.26810796055790
25
 energy: 78.006936286322 xtb: 6.6.1 (8d0f1dd)
C            3.59998302656386        0.95222198259582        0.17812565608599
N            2.53185432939930       -0.00080693485517        0.13427776359335
C            2.74953306039268       -1.32038225279083       -0.02911461263348
N            1.57226455408367       -1.98685398600227       -0.09562903295241
C            0.52771495505026       -1.08338039811138       -0.02223869997391
C            1.12545039523524        0.21882825765461        0.11148426219406
C            0.42603659793657        1.36598623453291        0.09781491406509
O            0.32041232237858        2.52789162096078        0.35684249896496
N           -2.12443837990687        1.32388095707344       -0.07140406890683
C           -2.96668054445382        2.44842176369893       -0.28977414373961
C           -2.46535801227776        0.22744444549849        0.29114158373393
O           -3.07348998720215       -0.63143453489317        0.77970304518741
N           -0.73381530115424       -1.26092893989132       -0.02663912504042
C           -1.25421762939120       -2.59558106071257       -0.14751146359993
H            3.53879174713467        1.56247735873038        1.07914570688277
H            4.51641267910743        0.36525657649932        0.00734310622758
H            3.58471914991487        1.76122095131974       -0.55565247061851
H            3.69044939791763       -1.76216582639904       -0.18223712769242
H           -2.29265029165377        3.24179646928600       -0.58078703651713
H           -3.60283297237187        2.25785271873391       -1.14133197996651
H           -3.58971174270363        2.66444947138012        0.57722362513573
H           -0.53625517405820       -3.28652751170957        0.30093340924650
H           -1.43282614807558       -2.79059885170674       -1.20720168259332
H           -2.21022845893999       -2.72436197244522        0.37320895432401
H            1.47302292680807       -2.97029790823092       -0.22301364059762
25
 energy: 77.157300360927 xtb: 6.6.1 (8d0f1dd)
C            3.63234280827591        0.92668717536431        0.18520872211491
N            2.56970645622092       -0.03030867428508        0.13565057980783
C            2.78651031994034       -1.34709815961561       -0.02981123616993
N            1.61435789410788       -2.01648044407147       -0.09193334326586
C            0.56495128132464       -1.11464141995569       -0.01910277195101
C            1.16711055344347        0.18921607231007        0.11588258117045
C            0.47317758239564        1.33621070412280        0.11371771896084
O            0.33990626948443        2.48766230461285        0.42337010533974
N           -2.24919775906389        1.37447797912525       -0.06113019600764
C           -3.04774390382583        2.51813305012408       -0.29302314917772
C           -2.57262487796671        0.29029974922382        0.32197678739882
O           -3.05200724822757       -0.62641754432913        0.84198752893001
N           -0.69135235635438       -1.28819164950222       -0.02645501269911
C           -1.24071614887152       -2.60676834569751       -0.14359045222803
H            3.51585880334989        1.60390948747563        1.02502151085683
H            4.54719035052070        0.32090528974194        0.10203343852591
H            3.66788424696286        1.68801940100944       -0.59918866694231
H            3.72261981909902       -1.80391231657552       -0.12572597300514
H           -2.31639178256100        3.29244825093406       -0.51771850377013
H           -3.67734175707878        2.34101872880227       -1.15690217664230
H           -3.68770570896291        2.73402053132591        0.56395403810453
H           -0.51249885347958       -3.31416189590865        0.23430037251413
H           -1.50321658514729       -2.79416913406992       -1.18716547803254
H           -2.17358688116472       -2.72368128465694        0.43365781425667
H            1.50780399918058       -2.99878390257046       -0.20796673082573
25
 energy: 76.112049403344 xtb: 6.6.1 (8d0f1dd)
C            3.63341602272904        0.92023418892208        0.19020153165452
N            2.59855930167589       -0.05758874388469        0.14053308462400
C            2.83086381192424       -1.37164768121064       -0.03098005782638
N            1.66121416974012       -2.04770173695659       -0.08985290304588
C            0.60289583120320       -1.15222432764616       -0.01537144911118
C            1.20096757382885        0.15471335498509        0.12292308837586
C            0.51910198127573        1.30378406744907        0.12315364693483
O            0.37560923973876        2.45838334988654        0.42172517993717
N           -2.35861770460503        1.44457895882256       -0.05666515751811
C           -3.12904510802796        2.59434178712755       -0.29594744661701
C           -2.65971022969888        0.36359722141793        0.32446466930674
O           -3.03021675934072       -0.59675213696452        0.83208274094238
N           -0.65004977361110       -1.32413505045555       -0.02952430602753
C           -1.22765779973311       -2.62689727687992       -0.15076524680864
H            3.49026208622043        1.66315482463886        0.96054975816221
H            4.53254833199247        0.30445893168519        0.22023684428901
H            3.72648837489237        1.59785320898425       -0.65227551662126
H            3.77107935167108       -1.82201092291209       -0.14015568471659
H           -2.34788987562463        3.33971030586194       -0.44625976148760
H           -3.74535393477182        2.43097905414619       -1.17505007115517
H           -3.78361888938411        2.80903347531447        0.54985712947105
H           -0.49725909450730       -3.35628724041612        0.14957066717582
H           -1.57326773895332       -2.80064684828721       -1.17807844113030
H           -2.13066873212083       -2.73024682688494        0.48416499029127
H            1.56239229237841       -3.02894928366289       -0.22135673366311
25
 energy: 71.977846429205 xtb: 6.6.1 (8d0f1dd)
C            3.64664657618459        0.91851093613253        0.17212697119109
N            2.63790248331708       -0.08608185469331        0.13550694098147
C            2.88026059820631       -1.40115120454279       -0.03267161110324
N            1.70983195165581       -2.08076648592835       -0.08777501053182
C            0.64499844605067       -1.18897616885404       -0.01822596436260
C            1.24364145124948        0.11746685412080        0.12191650274164
C            0.57257365055814        1.26634644093193        0.12138221731684
O            0.40756151900455        2.41409389695571        0.42297109504316
N           -2.47968651568746        1.49372372914609       -0.03619519604262
C           -3.21792696540561        2.65409885951696       -0.30187280057561
C           -2.75926828549606        0.40723687493995        0.33617200727817
O           -3.05849971805703       -0.62114663796358        0.75405155653791
N           -0.60746680598252       -1.35482476896825       -0.03864158532557
C           -1.19604846044535       -2.64989979371662       -0.15592154428915
H            3.49987166106027        1.65320187735706        0.95720179581602
H            4.53845221292989        0.32178192727306        0.31190359288387
H            3.76022873181292        1.53843601720919       -0.71442185688079
H            3.82461181549654       -1.84875406890347       -0.14941928727914
H           -2.42534495720049        3.38242226903026       -0.44999144237866
H           -3.82449214637520        2.50274684384016       -1.19123679316409
H           -3.87584816911023        2.88906006449497        0.53481561222763
H           -0.44832706849662       -3.37241818793557        0.09372938413105
H           -1.55330808016449       -2.82673772753693       -1.17985212524975
H           -2.07645363045924       -2.74795735887507        0.51225247422973
H            1.61805694381489       -3.06358124474318       -0.21869772898486
25
 energy: 68.255876354537 xtb: 6.6.1 (8d0f1dd)
C            3.67915993640736        0.89865975037883        0.16274431570649
N            2.68126934628680       -0.11610000109840        0.13369590582950
C            2.92782977339298       -1.43239197713322       -0.03490800893619
N            1.75489452586049       -2.11177675313468       -0.08590192979244
C            0.68702849675826       -1.22293071917266       -0.02179088480262
C            1.28892839518241        0.08470585780742        0.12393344693179
C            0.62598183390993        1.23179448853983        0.13248384385833
O            0.40455919633246        2.36867419384233        0.41931342950855
N           -2.60399937471895        1.53388110046125       -0.02114880223946
C           -3.30209985104660        2.71299444547311       -0.30736608133475
C           -2.85259486647516        0.44011376235964        0.34997770513760
O           -3.07776943569886       -0.62918617678647        0.71716067726957
N           -0.56388286281680       -1.39057229076192       -0.04263307428138
C           -1.16296610442102       -2.67866553380511       -0.15073498058631
H            3.52853706149302        1.61693535745912        0.97047667153026
H            4.57465245061428        0.33520265586940        0.39423483175398
H            3.80173748742639        1.46670619892391       -0.76219168994611
H            3.87695055747200       -1.87630258769340       -0.15159842004903
H           -2.50355656674635        3.43369479414122       -0.45059499265974
H           -3.89926135709820        2.58029938870389       -1.20760894403677
H           -3.96398093815013        2.96953596254441        0.51915865694166
H           -0.45674517207129       -3.41304045431346        0.16913183357582
H           -1.47988308186862       -2.85400669123787       -1.18644374255333
H           -2.04911350015969       -2.75531007574324        0.50160949545509
H            1.66708725844915       -3.09547792767398       -0.21723012918475
25
 energy: 65.556172822593 xtb: 6.6.1 (8d0f1dd)
C            3.71422195328327        0.87419849952542        0.15327292224884
N            2.72611786489044       -0.14750438307633        0.13567088759929
C            2.97929052105664       -1.46374430742797       -0.03489390406733
N            1.80539851244593       -2.14446259517154       -0.08422636985287
C            0.73347101651187       -1.26080619921948       -0.02637919251776
C            1.33591126923503        0.05296724985103        0.12020457191248
C            0.68372589410853        1.20060094531862        0.14208836055678
O            0.38373905993998        2.31834061108593        0.41061216818193
N           -2.73676394376022        1.57334599147340       -0.01993172590126
C           -3.38205460459900        2.77914873605870       -0.31624222879723
C           -2.95746934853262        0.49411740092867        0.40668162807304
O           -3.11503579391224       -0.58769105143156        0.78229062164513
N           -0.51581685303642       -1.43604818625026       -0.05153616696623
C           -1.14394441692282       -2.71077331797431       -0.14751210746417
H            3.57280647910416        1.56705314345725        0.98716820582015
H            4.63126984176102        0.33400804026601        0.33680649822695
H            3.81646645359344        1.39353368743237       -0.81175562186930
H            3.93454718350205       -1.90248699433623       -0.15093661960035
H           -2.57234671714065        3.48726471636951       -0.45231464666010
H           -3.97052840984916        2.66149386312922       -1.22617947027451
H           -4.04613674885463        3.05640048621906        0.50299463905082
H           -0.47274619039475       -3.46916721704286        0.21894118032423
H           -1.41404165402154       -2.88841396098460       -1.19392942048408
H           -2.07511567787952       -2.73237151915809        0.45487960100320
H            1.72036904718224       -3.12954503907787       -0.21626189120828
25
 energy: 63.162853496483 xtb: 6.6.1 (8d0f1dd)
C            3.75394439742843        0.85732333427033        0.15263603917749
N            2.77792975674587       -0.17538953705555        0.12894244278673
C            3.03756955998931       -1.49405626698234       -0.03519486814137
N            1.86285109992756       -2.17653409289143       -0.08277665935176
C            0.78593800631649       -1.29926287176869       -0.03268129459855
C            1.38586157811132        0.02347132879900        0.11196583128257
C            0.74467732360167        1.17119028948264        0.16771124806529
O            0.34375600284891        2.26402565896402        0.38911891420704
N           -2.89062914326436        1.61650628087814       -0.01861323612000
C           -3.46823383506854        2.85429139099094       -0.32541122315366
C           -3.07541048467983        0.54829972334936        0.45399674894523
O           -3.19110844949796       -0.54346249240915        0.82915721306391
N           -0.46148398189833       -1.48643832331892       -0.06350974913215
C           -1.10576028766208       -2.75265423068204       -0.15431673092777
H            3.62175312172996        1.50399857152837        1.02595831919308
H            4.70534936189989        0.34690567512025        0.25067142670626
H            3.77845615824947        1.43690626691415       -0.78025602228184
H            3.99737384194892       -1.92539100545130       -0.14327789776335
H           -2.63847943775769        3.54386758614875       -0.45316628592591
H           -4.04403997356228        2.76125964186316       -1.24695203869674
H           -4.12733614517149        3.15968509346590        0.48642417981944
H           -0.47308799057949       -3.53903397854288        0.24100428640078
H           -1.35029604758387       -2.93148196473041       -1.20430115000223
H           -2.05846285094663       -2.72322960438466        0.40820300025235
H            1.77344430532304       -3.16184717968410       -0.21532965056225
25
 energy: 61.388244271830 xtb: 6.6.1 (8d0f1dd)
C            3.78761687012236        0.84832172286070        0.15041093068138
N            2.82740353516942       -0.20086182235847        0.11378718515858
C            3.09247734074977       -1.52226433423414       -0.03722448211469
N            1.91418993324510       -2.20519069676081       -0.08470175720502
C            0.82974784648495       -1.33167083434484       -0.03862446154805
C            1.43348062421949       -0.00442563537711        0.09699527993115
C            0.80416599637569        1.14706682579126        0.19899923376278
O            0.30537333214387        2.20727141384732        0.36467173225391
N           -3.01925477878519        1.67114020322605       -0.03111310433485
C           -3.55674247163570        2.93208965799057       -0.33683569140415
C           -3.15233781996388        0.61473314842438        0.48384532321473
O           -3.19624352731454       -0.47166830142214        0.88512061215870
N           -0.41724525184112       -1.52966498441993       -0.07288684234628
C           -1.06675163258653       -2.79529885022090       -0.16326255747251
H            3.67177165555576        1.43670811242496        1.06448164454611
H            4.76604856359232        0.37885273771777        0.16190124636134
H            3.72226791254453        1.50577489354196       -0.72573279043632
H            4.06250145897477       -1.94751806987162       -0.12808017675764
H           -2.71165765161172        3.61072678680742       -0.45466003516435
H           -4.12505935300928        2.86983907748066       -1.26823327434740
H           -4.21257654800373        3.26455670356760        0.46765125720366
H           -0.47597781115799       -3.61743381685153        0.24685235757369
H           -1.29665349851819       -2.98720317154156       -1.21394576719559
H           -2.02358372829073       -2.72448341824112        0.37366644482243
H            1.83427930410277       -3.19559088181145       -0.21253828426569
25
 energy: 60.775774370076 xtb: 6.6.1 (8d0f1dd)
C            3.81384961446318        0.84237905055616        0.15274135535395
N            2.84555503364589       -0.20400920705085        0.08277376633037
C            3.09686496757382       -1.52798072747910       -0.04042972545494
N            1.91430511660758       -2.20248762543513       -0.09779703091716
C            0.82968960567759       -1.32602695639146       -0.03558245514992
C            1.45323269960605       -0.00182600044928        0.09019197186297
C            0.84124499523694        1.15625571194943        0.23538716136417
O            0.24504079273209        2.17185149287367        0.34327605107777
N           -3.03858942235497        1.68711970628104        0.00210176265559
C           -3.57351162185579        2.94848986360474       -0.32863818468009
C           -3.17365634774834        0.60092133965956        0.45297124928136
O           -3.12566352519540       -0.48524453236990        0.85705389135666
N           -0.41842366317758       -1.52816024714451       -0.07120457282832
C           -1.05368892657877       -2.80502384585795       -0.16840120335649
H            3.71218008902637        1.38737776737350        1.09569703682001
H            4.81522774765362        0.41852240985496        0.09236123651238
H            3.67439343672673        1.54892095281689       -0.67010169206831
H            4.06895378727994       -1.95875324315072       -0.09828532489208
H           -2.73906212436448        3.63916163328394       -0.45209471506644
H           -4.12872949769522        2.88933120598937       -1.26823236990868
H           -4.23590368054250        3.32035210210628        0.45725122919913
H           -0.48425874850372       -3.64213107555980        0.25705611930609
H           -1.27186410124902       -3.02532458474687       -1.21830757580437
H           -2.00579182199036       -2.71504108304229        0.35546941623352
H            1.85081989999940       -3.19964531892775       -0.19822348503251
