25
 energy: -42.456058734298 xtb: 6.6.1 (8d0f1dd)
C            3.59998302656386        0.95222198259582        0.17812565608599
N            2.53185432939930       -0.00080693485517        0.13427776359335
C            2.74953306039268       -1.32038225279083       -0.02911461263348
N            1.57226455408367       -1.98685398600227       -0.09562903295241
C            0.52771495505026       -1.08338039811138       -0.02223869997391
C            1.12545039523524        0.21882825765461        0.11148426219406
C            0.42603659793657        1.36598623453291        0.09781491406509
O            0.32041232237858        2.52789162096078        0.35684249896496
N           -2.12443837990687        1.32388095707344       -0.07140406890683
C           -2.96668054445382        2.44842176369893       -0.28977414373961
C           -2.46535801227776        0.22744444549849        0.29114158373393
O           -3.07348998720215       -0.63143453489317        0.77970304518741
N           -0.73381530115424       -1.26092893989132       -0.02663912504042
C           -1.25421762939120       -2.59558106071257       -0.14751146359993
H            3.53879174713467        1.56247735873038        1.07914570688277
H            4.51641267910743        0.36525657649932        0.00734310622758
H            3.58471914991487        1.76122095131974       -0.55565247061851
H            3.69044939791763       -1.76216582639904       -0.18223712769242
H           -2.29265029165377        3.24179646928600       -0.58078703651713
H           -3.60283297237187        2.25785271873391       -1.14133197996651
H           -3.58971174270363        2.66444947138012        0.57722362513573
H           -0.53625517405820       -3.28652751170957        0.30093340924650
H           -1.43282614807558       -2.79059885170674       -1.20720168259332
H           -2.21022845893999       -2.72436197244522        0.37320895432401
H            1.47302292680807       -2.97029790823092       -0.22301364059762
