25
 energy: 0.000000000000 xtb: 6.6.1 (8d0f1dd)
C            3.23720132972391        1.16630909158653        0.08434468864950
N            2.29877796055224        0.07527476373246        0.03981602671198
C            2.58028186251803       -1.21425391179017        0.03006175752192
N            1.43813944744728       -1.93419254010258        0.00098261751768
C            0.39035684826767       -1.05887462812143       -0.00790371763344
C            0.93510047688824        0.21347817468824        0.01709077332874
C            0.09450143016486        1.40504290868848       -0.00410946993748
O            0.49712746915594        2.54126690785742       -0.00342325656480
N           -1.25076628431515        1.06271869620815       -0.03085477937476
C           -2.21907191394203        2.15522079838987       -0.05001256521996
C           -1.81739470187490       -0.20012724136556       -0.04692818139228
O           -2.99983858926755       -0.37846413507442       -0.07008877579474
N           -0.92618577614240       -1.30210203518959       -0.03682761236648
C           -1.46982251276835       -2.64643077634382       -0.06029819901142
H            3.71247229913541        1.21471443890471        1.06488839270555
H            4.00791460421487        1.03430799217987       -0.67357688121503
H            2.69909982127087        2.09770098766290       -0.09130154035862
H            3.56654087521359       -1.63682977417947        0.04233139674524
H           -1.67107945562430        3.09322822573871       -0.02552706696334
H           -2.82428927394145        2.09428605349656       -0.95318074103337
H           -2.87644002486466        2.07745706351925        0.81450059976605
H           -1.17061985538665       -3.19584861009707        0.83242224714061
H           -1.14560246782873       -3.17511580834413       -0.95688266944647
H           -2.55549768731684       -2.55659960601237       -0.07459039105944
H            1.38130842369251       -2.94313824728853       -0.01389874052104
25
 energy: -5.332341450887 xtb: 6.6.1 (8d0f1dd)
C            3.25093182545751        1.17232241732689        0.08777497010549
N            2.31105949680117        0.09361614303075        0.03785895012935
C            2.60220681808779       -1.23473358260133        0.02931655952686
N            1.42968998057258       -1.94139247563504       -0.00140674442058
C            0.39823747215822       -1.05619155333883       -0.00884290780833
C            0.93178873429804        0.22244936210480        0.01584621848217
C            0.09863161446831        1.39558539784811       -0.00245074751964
O            0.49608002226761        2.56086383556135       -0.00083393425758
N           -1.26735626225442        1.05457418601103       -0.02813400927435
C           -2.23145892460410        2.15193687895057       -0.05341983802548
C           -1.82716948773562       -0.19894601772316       -0.03980022808654
O           -3.02332069585405       -0.38449584059074       -0.05793256281460
N           -0.93329483399545       -1.29918399690592       -0.03545974271750
C           -1.46722282971104       -2.64301462862002       -0.06166447988163
H            3.72286138320797        1.22300007573176        1.07231076251634
H            4.02488442466316        1.03094342889522       -0.66772717053949
H            2.70993316558030        2.09762753182425       -0.09749592906036
H            3.58064833683638       -1.66192043118324        0.04078319056270
H           -1.67314842289816        3.08514560699009       -0.03249666518038
H           -2.83878217897014        2.09911342345030       -0.95729603009508
H           -2.89342148126538        2.09041427796497        0.81026828596455
H           -1.15668015013622       -3.19932997017657        0.82476833311698
H           -1.14399551138226       -3.16920297723704       -0.96188333587043
H           -2.55236731627348       -2.55479634443225       -0.06813382485246
H            1.36347912565373       -2.94535595850193       -0.01691520780541
25
 energy: 2.628278717749 xtb: 6.6.1 (8d0f1dd)
C            3.37781153545858        1.12321999096804        0.12262751889906
N            2.35254348762495        0.12545782597565        0.01636606400180
C            2.62280022459408       -1.29467451949938        0.01227239487690
N            1.37312045233102       -1.91914406908921       -0.03749796935089
C            0.40885906415951       -1.01144506944795       -0.01730005206719
C            0.92201523669328        0.28261124871698        0.01471551754928
C            0.07242448831365        1.37904056840588        0.02951051268766
O            0.36482876120840        2.59124991797745        0.03458337687033
N           -1.39420743002645        1.05559644432927        0.01933683127817
C           -2.34878783221275        2.16437856883550       -0.11417814120200
C           -1.88250283212159       -0.19245987593241        0.08763598282274
O           -3.07747068232385       -0.46173795874142        0.17439525838007
N           -0.95081953488004       -1.25117961737909        0.00393722418476
C           -1.39753574639258       -2.61720232370129       -0.08500067834038
H            3.75978486059780        1.24907532907119        1.15425674069008
H            4.25551043218462        0.87972029433597       -0.51354190067269
H            2.95021987138182        2.08093864935040       -0.20976243972861
H            3.57078173450340       -1.77714940983156       -0.00793306976267
H           -1.75113265484814        3.07514190785006       -0.16986007804321
H           -2.95951580456621        2.07733187073708       -1.02083299023235
H           -3.05440542200596        2.23725455808284        0.72876831404310
H           -0.92022511163442       -3.25812763219698        0.69028004623177
H           -1.16142065916016       -3.03667124074489       -1.08197527564656
H           -2.48549746539526       -2.59269673684709        0.06937552193356
H            1.26503533148883       -2.91949993248093       -0.07314479720814
25
 energy: 15.548956319815 xtb: 6.6.1 (8d0f1dd)
C            3.44447844697090        1.08744244638701        0.14247637439590
N            2.37120773711954        0.13325886749832        0.00383647116508
C            2.62351831044357       -1.31909814322874        0.00182902950906
N            1.35014415760078       -1.90432248565567       -0.05707069454516
C            0.41183201366365       -0.98829114696485       -0.01955357167611
C            0.91948424975158        0.31266946125870        0.01800708822696
C            0.05601656563159        1.38179586463276        0.05068723467842
O            0.28811256271280        2.60393346795034        0.06084358180960
N           -1.46518933029695        1.06550935020715        0.04340017862370
C           -2.41493869873032        2.17754177157945       -0.15109897717082
C           -1.91224146731838       -0.18915649204246        0.16144966482295
O           -3.09670643952551       -0.50861582968484        0.31465622547968
N           -0.95479369040624       -1.22448294301449        0.02800539468460
C           -1.35534839349555       -2.60362745485634       -0.09927966654359
H            3.76651743992526        1.26126980779275        1.19957419914919
H            4.37806240340924        0.78055951221345       -0.41703119364632
H            3.09393811350577        2.06356329215298       -0.27841531403514
H            3.55828181121509       -1.82976488791602       -0.04497222675765
H           -1.80271725956432        3.07800848246477       -0.25192390261475
H           -3.02732466042961        2.06172444792929       -1.05781503641575
H           -3.13928780742998        2.32198562535305        0.67932453955622
H           -0.79001351096594       -3.28516258308749        0.60840027932273
H           -1.17621774498167       -2.96120288736189       -1.14710934647747
H           -2.43981400485383       -2.62146736925403        0.14659893259723
H            1.22521350102110       -2.90504138560906       -0.10778535194398
25
 energy: 33.937170745725 xtb: 6.6.1 (8d0f1dd)
C            3.57383573866730        0.94213719033431        0.19299905958487
N            2.42108789772413        0.09451925617680        0.00611992485149
C            2.60200177834211       -1.24388246835059       -0.01179522925893
N            1.40297323570426       -1.86606382381482       -0.11310555838930
C            0.40062365695091       -0.93770513635931       -0.02677974114174
C            0.97580053123637        0.34336299024788        0.05407512528671
C            0.08605873154877        1.46810251361498        0.09065441492290
O            0.22091673621880        2.65881141140788        0.25020641782761
N           -1.60964111171186        1.10707122801710        0.01596464533744
C           -2.60842839193931        2.19903227387153       -0.25244745558998
C           -1.99091376709447       -0.15487386461025        0.29866693618330
O           -3.04818790945530       -0.56080091973445        0.69867912489937
N           -0.92569169869206       -1.17619094754418        0.05943577434128
C           -1.29368835131625       -2.57046190838125       -0.12738250934451
H            3.68074913165498        1.24957979004775        1.23710481278930
H            4.48826875604031        0.38220483175537       -0.09226511271115
H            3.50505511069543        1.82939536958539       -0.44448356025006
H            3.53567565488355       -1.74425348701987       -0.20670785538153
H           -2.08193100086100        3.13017652637056       -0.49456349423775
H           -3.26709786060817        1.99689267557002       -1.11781089059523
H           -3.30888222496234        2.48314860576759        0.54793897082431
H           -0.57103583800564       -3.24793194937253        0.35716232314882
H           -1.31547252580479       -2.79741914586907       -1.20273339996001
H           -2.27441971141949       -2.73177943430684        0.31314147750005
H            1.31455773717648       -2.86404278865970       -0.20504028844265
25
 energy: 47.382921231213 xtb: 6.6.1 (8d0f1dd)
C            3.62363023618351        0.90753199652420        0.21725307968873
N            2.43008720458831        0.10544628787163        0.01093077997075
C            2.60817843872373       -1.24539876427953       -0.02915853095262
N            1.40171061774565       -1.86105947672312       -0.13467275575647
C            0.40729415627461       -0.92290939406002       -0.03735182140437
C            0.97694574776080        0.36019412339780        0.05893036713640
C            0.08097245059693        1.47509739893789        0.10419162254324
O            0.22118513018473        2.65960672988476        0.28910223148726
N           -1.65435778948456        1.12507376901371        0.00481709354690
C           -2.67799314253615        2.20913925560244       -0.28402677505628
C           -2.00844617594888       -0.13466299331778        0.33838596419797
O           -3.04897869159997       -0.57070508408198        0.82978341824705
N           -0.92124031647782       -1.16124048246480        0.06986033812089
C           -1.27048056307687       -2.56003300521054       -0.13760148647493
H            3.66436404026727        1.28052897343088        1.26701285874654
H            4.55335796893871        0.26995096666441        0.02865012006303
H            3.65144946074403        1.77574931588395       -0.51547221166363
H            3.53923841811576       -1.74616704660407       -0.25348840218035
H           -2.16957907699608        3.14274250511786       -0.57107870191514
H           -3.35400364691157        1.97379652623871       -1.13401745657069
H           -3.37579253863308        2.52863902291071        0.51729640752897
H           -0.49783759929602       -3.25345486209404        0.27917657405316
H           -1.36121242885591       -2.75524183811480       -1.23033363653295
H           -2.22585059697556       -2.75472147795298        0.37843960570494
H            1.31957300164120       -2.85887365783088       -0.23959477033386
25
 energy: 51.221769721489 xtb: 6.6.1 (8d0f1dd)
C            3.60681407423974        0.90800412679226        0.24170571533904
N            2.42365048820027        0.10486438520272        0.04306703352105
C            2.64871042818618       -1.25423746821369       -0.07187075460713
N            1.45126262158618       -1.89100278824809       -0.15234326339997
C            0.44360735053940       -0.98353015345932       -0.06231713393941
C            0.97631104368643        0.30958272492079        0.04717941208537
C            0.07848501741554        1.43308490272100        0.09643300747163
O            0.33260704230098        2.59588544883137        0.30851395994083
N           -1.64367244512396        1.17739818959908       -0.07342843542163
C           -2.73876459302131        2.25499410719799       -0.28064377718067
C           -1.98280631172613       -0.07044081196360        0.29097375721827
O           -3.00324503886685       -0.48481276352798        0.78569649918161
N           -0.89347452559312       -1.18430236494038        0.04896726752878
C           -1.30510085698492       -2.56476095912035       -0.12302768307209
H            3.61937522801642        1.44396893597299        1.19849127089199
H            4.48899701310222        0.25616722464240        0.24102428010456
H            3.74781514207228        1.62761768318531       -0.57272622237117
H            3.60433025978834       -1.70724973732730       -0.25863137527438
H           -2.29219380179160        3.19406133004405       -0.60733858724624
H           -3.45937462479350        1.99144208044103       -1.07512188699917
H           -3.39794319100069        2.52718540899536        0.57043212480857
H           -0.51758523257382       -3.26445805553384        0.19911585707509
H           -1.52205710040738       -2.78206318597489       -1.18195407050147
H           -2.18972338088307       -2.75139213895860        0.48373463941032
H            1.43618969860524       -2.89697733253396       -0.26889772236917
25
 energy: 58.173219945777 xtb: 6.6.1 (8d0f1dd)
C            3.60578315277649        0.92976221797049        0.20369429321831
N            2.44309514724890        0.08195713665182        0.05342649157394
C            2.67030626950440       -1.27383250801700       -0.03543911099532
N            1.47224915018717       -1.91935588838472       -0.14900639900476
C            0.45329127019412       -1.01050451593589       -0.06910319078534
C            0.99009806652462        0.28685845503524        0.04444516346769
C            0.08924403086715        1.40169715453232        0.10540203467641
O            0.31237970218627        2.56310549322896        0.34985975400452
N           -1.66759898919132        1.18676438036334       -0.06515727770749
C           -2.74637696281629        2.29558021936279       -0.25943912729665
C           -2.01273129674383       -0.06366664203121        0.26951997040063
O           -3.02319720629040       -0.50645012532905        0.74238492985712
N           -0.89017638591237       -1.18722429527348       -0.00355664192782
C           -1.30439777842575       -2.58184850156530       -0.13746664406295
H            3.54353197664301        1.55144026561477        1.09335906561393
H            4.48658772423064        0.30038125958140        0.32451419953393
H            3.78337541344772        1.55239556881831       -0.68046305782618
H            3.63675555509202       -1.73811796033286       -0.16563797644615
H           -2.28558010617069        3.23488843221248       -0.56054253118837
H           -3.47830913105228        2.07471117711422       -1.05640435590223
H           -3.40115802498069        2.57617592936890        0.59212466041245
H           -0.50394739931789       -3.28268399992091        0.14272032452796
H           -1.57404259001100       -2.79805022434376       -1.17845088271314
H           -2.15138111283780       -2.76025884496926        0.51536307069116
H            1.46441382982076       -2.92469539500733       -0.24911284992708
25
 energy: 63.700083398573 xtb: 6.6.1 (8d0f1dd)
C            3.61722676953224        0.92988491233886        0.18216939376298
N            2.45242245977291        0.07240619036500        0.06317050310240
C            2.67920352410191       -1.28056995115984       -0.02594534697027
N            1.47977565556495       -1.93075845044029       -0.13927386216494
C            0.45785102519648       -1.01222716486228       -0.06661968494310
C            0.99866485943972        0.28272257514278        0.05268278468588
C            0.10336557634211        1.39552602731805        0.12747750721216
O            0.32293312583771        2.55258451173397        0.38620518312255
N           -1.68986684958337        1.19120729770439       -0.05439222164873
C           -2.76646900368184        2.31283428460926       -0.25366595399218
C           -2.03626388792582       -0.05841778311803        0.26769134607972
O           -3.03784621874227       -0.52471099820063        0.72763704636283
N           -0.88718307548422       -1.18734532212202       -0.02786197766960
C           -1.29581104071718       -2.58781152897992       -0.14961452955950
H            3.51019885417910        1.60781800284432        1.03403116071007
H            4.49714398147222        0.30499305093105        0.36559998320385
H            3.80992281495938        1.49798215175717       -0.73734848904780
H            3.64649659259998       -1.75132438554919       -0.13621225769741
H           -2.28969557599024        3.25429144625499       -0.53969642085349
H           -3.49696692138666        2.11535501090498       -1.06351574556805
H           -3.42716423055170        2.59932089484465        0.58986825864924
H           -0.48534223757247       -3.28635463862202        0.10915753424581
H           -1.59746556970599       -2.80365095645882       -1.18573181518682
H           -2.12420647777287       -2.76801810924610        0.53378015314979
H            1.47129015508886       -2.93670827924602       -0.23255863679080
25
 energy: 70.183285122234 xtb: 6.6.1 (8d0f1dd)
C            3.62898403152282        0.92942387797274        0.15254697342383
N            2.46218236229314        0.06043527608905        0.07229764693258
C            2.68657213536241       -1.29020334375080       -0.02296255649359
N            1.48571431981107       -1.93920356064993       -0.11974289753907
C            0.46267239746353       -1.01131029728996       -0.05560586773524
C            1.00892571328914        0.27996352918179        0.06300343163835
C            0.12637759466958        1.39366866663765        0.15572276684161
O            0.33334879500824        2.54648062456359        0.42478329704494
N           -1.72409971539853        1.19695641141956       -0.03366172094235
C           -2.79317853547122        2.33288704410031       -0.24433532133399
C           -2.06841667100614       -0.05389875509265        0.26541689427845
O           -3.06104103938915       -0.55614543559094        0.69952825000143
N           -0.88285494323542       -1.18756837980213       -0.05165691712334
C           -1.28269607721399       -2.59243191992194       -0.16081328082514
H            3.49011367868049        1.65008145135322        0.95415610387153
H            4.52022959694645        0.31453433270922        0.39245363888157
H            3.82002902681382        1.44609022826243       -0.78484435361436
H            3.65120289929895       -1.77205295569571       -0.11183039637775
H           -2.28452349378043        3.27257056574302       -0.49351067136663
H           -3.50496342268104        2.17260282184546       -1.08485015709666
H           -3.47313906483695        2.62025918918378        0.58109959997173
H           -0.47754281963481       -3.28438925131137        0.09396438946443
H           -1.58504971343407       -2.81807205096663       -1.17982875767307
H           -2.09746978207638       -2.77479678398630        0.52234282051408
H            1.47083703197145       -2.94685249625916       -0.20663900254871
25
 energy: 79.544441991077 xtb: 6.6.1 (8d0f1dd)
C            3.64738591922540        0.91484807197534        0.13693067124842
N            2.47712093294848        0.04313523900446        0.09566172266638
C            2.69906657941526       -1.30072032173239       -0.03004759599559
N            1.49962315800871       -1.94792721273507       -0.09727441806609
C            0.47291614347508       -1.01251530599582       -0.04146731380467
C            1.02801892203299        0.27276245359301        0.07718198022288
C            0.16934508143138        1.39624877892232        0.18176699694788
O            0.36689499935274        2.54202116286525        0.47057069772240
N           -1.77560052566203        1.21128276876434       -0.01983202885673
C           -2.84419206697889        2.35800190028142       -0.23852483789157
C           -2.10894356149384       -0.03785254260206        0.26006986761285
O           -3.08526212915021       -0.58832380201271        0.67714346772615
N           -0.87063319471660       -1.18900118733232       -0.07201845199949
C           -1.26657222265684       -2.59279260713005       -0.16941175291049
H            3.47965049385046        1.70001803142963        0.87676635340142
H            4.53525285290372        0.31421134830337        0.42421422177311
H            3.84237016768530        1.37180928332965       -0.84536401979837
H            3.65908675161833       -1.78840354885066       -0.10287177938002
H           -2.30336279982407        3.29593867212693       -0.43638787011382
H           -3.52604662081327        2.24211596107745       -1.11933354926381
H           -3.55284077917406        2.63513153019562        0.56099651377289
H           -0.45926095761044       -3.28259140940515        0.07694121005513
H           -1.58399773760220       -2.83027470090919       -1.17963462082819
H           -2.06863261175398       -2.78018593107413        0.52459798139679
H            1.48082751046163       -2.95790784334497       -0.18363953344283
25
 energy: 84.056698851581 xtb: 6.6.1 (8d0f1dd)
C            3.64787758920113        0.91265910827151        0.14904171204303
N            2.49527047328948        0.03194969248271        0.10942625385431
C            2.71776328114348       -1.31175954126517       -0.03372573845326
N            1.51643655240951       -1.95848784833616       -0.10546749374061
C            0.48808324704224       -1.03419362656026       -0.03731683042666
C            1.05144150125046        0.25169761745924        0.07999217029699
C            0.20516431841249        1.37949443802788        0.15085842203237
O            0.37730552126486        2.52969653996600        0.44654773539772
N           -1.82170704927319        1.23631069257424       -0.05016748977394
C           -2.88089771928001        2.38223961782773       -0.24091862169159
C           -2.12888562206493       -0.01075328632683        0.23862007039328
O           -3.08005790944053       -0.56916005378874        0.69826422868206
N           -0.85487179318401       -1.19747190528614       -0.05459969261437
C           -1.26746343419824       -2.59602261769898       -0.16091747750331
H            3.51595194978328        1.66802776208292        0.92192558054537
H            4.54980512470159        0.32545973845978        0.38138657852307
H            3.81697822622530        1.40005117430242       -0.81841515418975
H            3.68079174782061       -1.79127260540173       -0.10988919923703
H           -2.34220624465417        3.31461162802466       -0.43838048971781
H           -3.55639828940379        2.25724578212092       -1.11480821288501
H           -3.58598823146174        2.63953266292480        0.57399848058245
H           -0.47639334958474       -3.30219511936696        0.11994214679958
H           -1.55498825774134       -2.83688939271406       -1.18751347145458
H           -2.10325124923473       -2.76619039680588        0.50752901629203
H            1.50245392195004       -2.96555127222966       -0.19837861155975
25
 energy: 91.467111679583 xtb: 6.6.1 (8d0f1dd)
C            3.66014104362009        0.90423734810142        0.15559152136123
N            2.52086396747544        0.01274823132154        0.12300491232556
C            2.74202312926408       -1.32885674426609       -0.03579818896975
N            1.53798766664879       -1.97373705221775       -0.10851175990722
C            0.50719470689685       -1.05233519129117       -0.03548303379984
C            1.08248719281395        0.23164593923873        0.08859311169949
C            0.25165588640405        1.36641467065665        0.12183208790406
O            0.39629660990312        2.51284797505626        0.43706129941942
N           -1.88813523382106        1.26261589442911       -0.06125861547934
C           -2.93945367533370        2.40817454115148       -0.25036942843175
C           -2.16340736155257        0.01999973341190        0.24831981621449
O           -3.09153321615066       -0.56427104209311        0.72154134686357
N           -0.83524891653002       -1.20132301515452       -0.04439545582774
C           -1.25741006230937       -2.59738411360146       -0.15803289337830
H            3.54506042685767        1.63326641742211        0.95829075282502
H            4.57732986430309        0.32501725523307        0.34370302953683
H            3.79595387931418        1.42716849066896       -0.79993588402385
H            3.70717910017988       -1.80311145259407       -0.11967227431348
H           -2.38997765394756        3.33422402638516       -0.44060736994583
H           -3.61193083153590        2.29622416528901       -1.12392135921889
H           -3.63992784407499        2.67095159652441        0.56817476048811
H           -0.48437080065165       -3.31759905901103        0.15257922246756
H           -1.51904658815675       -2.84491835484539       -1.19325971752192
H           -2.11824118025856       -2.75270756263345        0.48617104815258
H            1.52672419561460       -2.98026390843760       -0.20658301624542
25
 energy: 98.390680863481 xtb: 6.6.1 (8d0f1dd)
C            3.67870567302711        0.89333253313709        0.15873764655902
N            2.55461135915892       -0.01418552879052        0.13511184702931
C            2.77237886502363       -1.34992598906616       -0.03612294422608
N            1.56629227783221       -1.99383845706773       -0.10597758003208
C            0.53099054682930       -1.07184596621926       -0.02991298116157
C            1.12238173571654        0.20730383944238        0.10183762951718
C            0.30472184127188        1.34677309299914        0.09815812998127
O            0.41548201661050        2.48725631728362        0.43661573606674
N           -1.97951602065517        1.29781387479673       -0.07061790286851
C           -3.01429333649934        2.44726683289515       -0.25862818213418
C           -2.22059180411890        0.06090776663537        0.24767826216603
O           -3.10799196156490       -0.56530332479599        0.74896976562906
N           -0.80874382959823       -1.20686652419553       -0.03554066134064
C           -1.23970144244765       -2.60148361599623       -0.15643393744944
H            3.57096487981611        1.59864445657158        0.98538840075881
H            4.61121000950186        0.32642635467174        0.30813774778127
H            3.77885597118479        1.44852434418414       -0.78490088026585
H            3.73899407259138       -1.81992071166634       -0.13122274051709
H           -2.44100994023542        3.36094367860058       -0.44227325588290
H           -3.67891213977119        2.34899453386261       -1.13773755584388
H           -3.71106242935185        2.72074039121129        0.55928684413980
H           -0.48597680593856       -3.33639948986028        0.17726575856081
H           -1.48168731907023       -2.85407098861660       -1.19673647786187
H           -2.12045725802773       -2.74206791018824        0.46616549432847
H            1.55656934368799       -2.99999072108438       -0.21021425073907
25
 energy: 92.908297235933 xtb: 6.6.1 (8d0f1dd)
C            3.75879848729940        0.85653792988127        0.15629359008475
N            2.71135081311177       -0.13220673024941        0.12288415879630
C            2.92855109874737       -1.44329848627404       -0.04152423778726
N            1.73622099335766       -2.10641053982376       -0.09639964806439
C            0.66149643167328       -1.18949822390017       -0.01462483380332
C            1.30362934610318        0.08643045886752        0.12485978086194
C            0.51070460722075        1.19854592261035        0.11222077527695
O            0.41390558069685        2.35172833305761        0.42229869621768
N           -2.46227840880437        1.50131592897657       -0.03560159887632
C           -3.32922451007508        2.69165245195842       -0.30063899908899
C           -2.57761748180237        0.31940024511320        0.28501208397275
O           -3.20892065030947       -0.55051251501026        0.82159405892271
N           -0.64542270679767       -1.29759052606365       -0.01308391873500
C           -1.13890131067331       -2.67343225048794       -0.15543740689603
H            3.65104371884613        1.47385673822216        1.05490358760906
H            4.74247952037737        0.36190323918011        0.18027483446800
H            3.72324664377826        1.51125654110064       -0.73080394789633
H            3.90314239215928       -1.89575799557947       -0.13573311186977
H           -2.63748457824824        3.52942710625339       -0.45269954556395
H           -3.94933338151226        2.62307087453528       -1.20668556233383
H           -4.01520882975859        3.00126545701913        0.50659803995521
H           -0.47312200278770       -3.47154309081261        0.23508671298282
H           -1.34453035066336       -2.92089526817137       -1.20474776550777
H           -2.07567205619264       -2.72697056649293        0.40212449438776
H            1.72536093922681       -3.10924624516591       -0.20913632491826
25
 energy: 74.277033431855 xtb: 6.6.1 (8d0f1dd)
C            3.77485714233383        0.85374113575652        0.15357782049486
N            2.75708875043035       -0.15750105952181        0.11401577907219
C            2.97515394961027       -1.46518415758680       -0.04202508962515
N            1.79782376148766       -2.14056025323452       -0.09414280952566
C            0.71265876542984       -1.23580082668402       -0.02040971236769
C            1.36180422346550        0.05721866521501        0.12193031708321
C            0.61960356483898        1.16597632600825        0.13073140437904
O            0.38538371414353        2.31637106870485        0.41022312622989
N           -2.67617574108239        1.57153235843160       -0.01622332062325
C           -3.39848724095422        2.77469264511471       -0.31525983317060
C           -2.77493057227190        0.45294116521612        0.33215594115665
O           -3.22575628249747       -0.52613882799299        0.83126528206869
N           -0.54714036302962       -1.38845975175920       -0.02828025048640
C           -1.10885185960778       -2.72333006475832       -0.15785056545529
H            3.67001844786256        1.44593358879000        1.06227975203095
H            4.75553658241388        0.38433093470810        0.15179951514307
H            3.70519804653921        1.51782366839089       -0.70588906275092
H            3.94802717541569       -1.91078800028962       -0.13121296356787
H           -2.66834821382819        3.56988644115649       -0.45497333866151
H           -4.00000005797908        2.68733159812756       -1.22272139303471
H           -4.07285556242875        3.07359380552066        0.49732297222400
H           -0.47311513957414       -3.52367263309797        0.24111085035613
H           -1.31881169494948       -2.94987671249071       -1.20731142003574
H           -2.05384870775561       -2.72245206291421        0.38535988996551
H            1.76738161696036       -3.13858026206648       -0.20843897870476
25
 energy: 62.895747361664 xtb: 6.6.1 (8d0f1dd)
C            3.81670403844195        0.84174774005420        0.15457690301156
N            2.85133076090857       -0.20858268307134        0.09811645545426
C            3.10912909202967       -1.52897142173844       -0.04079729045736
N            1.93477887997740       -2.21241607363637       -0.08813401146028
C            0.84581760450102       -1.33676371239682       -0.03989265637807
C            1.45319807216854       -0.01130445339221        0.09375824126876
C            0.81803547573224        1.13783872848992        0.21351901946566
O            0.30640671289146        2.19898946726173        0.36374655459963
N           -3.06159476200884        1.70786368742492       -0.03084480969804
C           -3.59144911063723        2.95672461100484       -0.34141502167916
C           -3.16117228462127        0.62330726013086        0.50580615226226
O           -3.19603621649988       -0.46343308138611        0.87425276851059
N           -0.39279605858795       -1.55734254905211       -0.07985776538341
C           -1.04992588551694       -2.81393101638822       -0.17182754261813
H            3.71629909844980        1.38226832581101        1.10315680010998
H            4.82143715622616        0.42023356654995        0.08476737706481
H            3.66684994342223        1.55435210739333       -0.66574132550998
H            4.08143684805424       -1.95731381501830       -0.10674184540915
H           -2.75754331692005        3.64558781868868       -0.45483810028344
H           -4.15288085799029        2.89793215338384       -1.27560387981796
H           -4.24454357183701        3.31873368732801        0.45696500817479
H           -0.49028484569713       -3.65872393554594        0.25338383661747
H           -1.27042795269570       -3.03056895906514       -1.22198337185980
H           -2.00006430335364       -2.71115523240234        0.34986103711214
H            1.85950978853568       -3.20604343168389       -0.20719862090244
25
 energy: 60.775774370076 xtb: 6.6.1 (8d0f1dd)
C            3.81384961446318        0.84237905055616        0.15274135535395
N            2.84555503364589       -0.20400920705085        0.08277376633037
C            3.09686496757382       -1.52798072747910       -0.04042972545494
N            1.91430511660758       -2.20248762543513       -0.09779703091716
C            0.82968960567759       -1.32602695639146       -0.03558245514992
C            1.45323269960605       -0.00182600044928        0.09019197186297
C            0.84124499523694        1.15625571194943        0.23538716136417
O            0.24504079273209        2.17185149287367        0.34327605107777
N           -3.03858942235497        1.68711970628104        0.00210176265559
C           -3.57351162185579        2.94848986360474       -0.32863818468009
C           -3.17365634774834        0.60092133965956        0.45297124928136
O           -3.12566352519540       -0.48524453236990        0.85705389135666
N           -0.41842366317758       -1.52816024714451       -0.07120457282832
C           -1.05368892657877       -2.80502384585795       -0.16840120335649
H            3.71218008902637        1.38737776737350        1.09569703682001
H            4.81522774765362        0.41852240985496        0.09236123651238
H            3.67439343672673        1.54892095281689       -0.67010169206831
H            4.06895378727994       -1.95875324315072       -0.09828532489208
H           -2.73906212436448        3.63916163328394       -0.45209471506644
H           -4.12872949769522        2.88933120598937       -1.26823236990868
H           -4.23590368054250        3.32035210210628        0.45725122919913
H           -0.48425874850372       -3.64213107555980        0.25705611930609
H           -1.27186410124902       -3.02532458474687       -1.21830757580437
H           -2.00579182199036       -2.71504108304229        0.35546941623352
H            1.85081989999940       -3.19964531892775       -0.19822348503251
