25
 energy: 131.545478794238 xtb: 6.6.1 (8d0f1dd)
C            3.28747739040676        1.47463364782409       -0.24018708005566
N            2.51141894562837        0.32573424028180       -0.67659347608089
C            2.05485745544685       -0.75282536274780        0.25206329498300
N            1.25473693112889       -2.13686729700720        0.00218558052473
C            0.10195793175399       -1.41879958879096        0.10198600096685
C            0.68413855575442       -0.20597038549865        0.48104868242585
C            0.19238077750459        1.12057897191537        0.31793132710165
O            0.69725499905773        2.22302387441629        0.44140537505662
N           -1.21219112827756        1.02230744216824        0.05114116638062
C           -1.99852335303097        2.28258963991823       -0.00036797626816
C           -1.86300657081005       -0.17248420694992       -0.12890944224973
O           -3.05406018642194       -0.25190859715038       -0.27157777727276
N           -1.13544694743053       -1.43093661261254       -0.34912086358961
C           -1.54535732883915       -3.05088135077710       -0.24626193714630
H            3.58638307595318        1.51350313260264        0.82901864565028
H            3.84208108952463        1.27603311149768       -1.19629030280303
H            2.96957708209450        2.53500109614572       -0.32993609230364
H            2.88805261008123       -1.06144806625330        0.93012093290174
H           -1.28853775937790        3.10435566597579        0.07460672853868
H           -2.55518708234045        2.37838048546119       -0.93954242614511
H           -2.71205189208351        2.37725790406471        0.82403682253544
H           -1.21123859686011       -3.63177463166746        0.62839290137723
H           -1.15774764570487       -3.58527657046536       -1.10938969380970
H           -2.60968329819754       -3.01276801843844       -0.26153630591149
H            1.46280370349352       -3.12645241488584        0.13465282727065
