25
 energy: 28.475098936376 xtb: 6.6.1 (8d0f1dd)
C            3.17705372649781        1.29623239620828       -0.07029166667401
N            2.19951888423978        0.18089666554124       -0.21818367987835
C            2.43092148020762       -1.17594619156129        0.08665391232060
N            1.32030108180450       -2.01932769134440        0.15277483489007
C            0.25144693989121       -1.23084581055159        0.01837021549110
C            0.78702609677073        0.08126639666496        0.00075099877677
C            0.09623020370491        1.28594540077501        0.13652758165288
O            0.56437224304245        2.42758556354207        0.21605026391633
N           -1.30009930266651        1.01970524827024        0.07355999648467
C           -2.14134753481945        2.20590226571912       -0.01891445234565
C           -1.86356532197503       -0.22857456322775       -0.10318621948843
O           -3.06357504670399       -0.35514086260385       -0.23955428357490
N           -1.08494924231987       -1.44674262917032       -0.08880166406812
C           -1.49484018248484       -2.85516337092355       -0.15147995552577
H            3.65465368397192        1.35954417190425        0.93189168546918
H            3.83759921191498        1.11016221088121       -0.93220048062620
H            2.78554590107517        2.30442914931348       -0.19324209343759
H            3.35688236747153       -1.49246920867835        0.49697146280119
H           -1.49341211479324        3.08340299560503        0.02013235817016
H           -2.71133595858444        2.22345780077793       -0.94953556707017
H           -2.82443452196491        2.22972633806459        0.82520187904561
H           -1.18792468338777       -3.41627713776000        0.73692717490876
H           -1.11856879146805       -3.37047621419783       -1.03594875182376
H           -2.56941614584557       -2.81210765244187       -0.18547563609539
H            1.36458040010700       -3.02765409294267        0.17397851694272
