25
 energy: 31.760361044379 xtb: 6.6.1 (8d0f1dd)
C            3.38771511699551        1.79676066154360        0.06874272655674
N            3.28062824963801        0.76447646959676       -0.63787234199538
C            1.64272425088245       -1.14978424900997        0.40799848223256
N            1.03647739244270       -2.36261484067184        0.18630337908289
C           -0.31616203113748       -2.23889310359223        0.09614654240242
C            0.56796159726179       -0.24199442720840        0.32283700817175
C            0.21096861666782        1.14747407971523        0.25977364028327
O            0.89537462773828        2.15191331415898        0.40518452282386
N           -1.16348326828985        1.17453153966673        0.04213926745713
C           -1.93249889980506        2.38759146332165        0.00790811760645
C           -1.73971425214888       -0.05671968206827       -0.07765764964499
O           -2.92457161731352       -0.30672112607028       -0.23921546773323
N           -0.64676800185514       -0.93155862947356        0.03012854345219
C           -1.29624023284505       -3.32146422233559       -0.13298470558001
H            3.40459937176736        1.69944804545292        1.14476450723621
H            3.30478816060531        0.95457013733080       -1.63145691223617
H            3.41204039880462        2.82171653482603       -0.30598120116210
H            2.70680589754391       -1.05075212832278        0.65031053817044
H           -1.21958392714694        3.20246214174744        0.10671321747382
H           -2.46277179401724        2.47472197469127       -0.93532469103598
H           -2.64280677723076        2.42611359441441        0.82765896473516
H           -1.26662898042783       -4.04499744530619        0.67782501760595
H           -1.15342638749569       -3.84652049187925       -1.08055606803927
H           -2.27199735785001       -2.84246548324766       -0.16038733633025
H            1.47114590734926       -3.27581426476624        0.20888433944749
