25
 energy: 27.005608810264 xtb: 6.6.1 (8d0f1dd)
C            3.40667439269947        1.85262937664427        0.08758090571011
N            3.44102612021784        0.82747715178993       -0.64519498234133
C            1.60065904313331       -1.12365098301982        0.32302028027296
N            1.00515822395423       -2.35683330974558        0.21588609526758
C           -0.34215655901367       -2.28245263239491        0.06282455580277
C            0.55217013739569       -0.21288417772767        0.21375664435591
C            0.20270261539842        1.18073041654445        0.23169796543061
O            0.89968729861299        2.17304547345061        0.38361308429987
N           -1.17297538542197        1.19584138753481        0.04443952294878
C           -1.94962922718786        2.40283693080701        0.00056418629139
C           -1.72078691956036       -0.05873750357760       -0.10886200910658
O           -2.90200288070976       -0.31892033444701       -0.26639555292039
N           -0.64259054174290       -0.93542372190701        0.03037816613536
C           -1.33032449212560       -3.36209320618921       -0.17642460661552
H            3.33410604653538        1.72748530886733        1.16659168616649
H            3.41817598933976        1.00878713722738       -1.65930318106282
H            3.47812571953989        2.88543090971261       -0.24896389899099
H            2.68354531992931       -0.97694705324335        0.46561043170030
H           -1.25557767713918        3.23443016142399        0.08802163915134
H           -2.49293825755595        2.46559425331596       -0.94052615023132
H           -2.66763231167729        2.43001090910706        0.82430173926591
H           -1.29223731395662       -4.08216841305512        0.64572590125547
H           -1.20420299053996       -3.89741359274452       -1.12439720500378
H           -2.30983440113107       -2.87026398233250       -0.19091670177024
H            1.47932046381199       -3.24744116431257        0.24426601883712
