25
 energy: 44.531133089654 xtb: 6.6.1 (8d0f1dd)
C            3.36035250820395        1.74172235942976        0.04077018445655
N            3.16738626293970        0.71576013422694       -0.65846135507628
C            1.64422373408795       -1.09327754900412        0.41774390014962
N            1.01572573725849       -2.33015487402842        0.26827621888198
C           -0.33139394132847       -2.18877485928238        0.10145261378021
C            0.55748915024098       -0.22714318938324        0.38399068387724
C            0.22276741289701        1.15103277030271        0.28703637496862
O            0.85105061585286        2.19263999027563        0.41616311118506
N           -1.16758706629992        1.16704488488987        0.05093608414458
C           -1.92010531153098        2.38406680297838        0.01410813952158
C           -1.77054369377460       -0.03913546549931       -0.06680702480189
O           -2.95693194909226       -0.26842769826345       -0.21563122007191
N           -0.67016864540030       -0.90896581614353       -0.05225866207467
C           -1.33038584394872       -3.31502256951522       -0.13415995349174
H            3.42952994256460        1.65934858583298        1.10950907339087
H            3.37145859988929        0.98118653318169       -1.60122052450648
H            3.33887060131011        2.76389738184452       -0.32402339969925
H            2.66009692019828       -0.96259244312264        0.81081303480191
H           -1.19905195238422        3.18847938209340        0.12016844695979
H           -2.44853625222212        2.49410645914481       -0.92973834185665
H           -2.63985282656128        2.44165076053058        0.83577784043544
H           -1.26945779265540       -3.99207996508957        0.68553901896225
H           -1.13498825273683       -3.83081660123118       -1.07777523143285
H           -2.33409666646938       -2.88640180007490       -0.18259177204262
H            1.42678788746417       -3.25617712095735        0.25080565425370
