25
 energy: 120.529757865674 xtb: 6.6.1 (8d0f1dd)
C            3.24793552970774        1.45650805828600       -0.23168782773631
N            2.47234326839638        0.30015661782551       -0.68531209096579
C            2.08319532094860       -0.78892959350866        0.24572413932720
N            1.27353698160822       -2.12754009083871       -0.03030796929235
C            0.11952416320323       -1.41690643282984        0.12708828257410
C            0.70667613849652       -0.20331597347192        0.49234720523181
C            0.18703908934455        1.13193742433090        0.31466901065120
O            0.68042220525222        2.24413333664842        0.41306094044377
N           -1.21325852009378        1.01522818183140        0.05699421788185
C           -2.01616641370069        2.26592765617320       -0.00340008090991
C           -1.86364653653008       -0.18914113976564       -0.11820649967255
O           -3.05812067876604       -0.26179653097686       -0.24733846840628
N           -1.13349090202050       -1.43970698715947       -0.30618606600771
C           -1.54300061785788       -3.01487785792916       -0.23729728762469
H            3.58873554582526        1.50949142488632        0.83303100937363
H            3.83391833960306        1.27114282418008       -1.15920316975381
H            2.92477890366835        2.50715137315945       -0.31436678878996
H            2.95156282390979       -1.12489498303897        0.87980571004117
H           -1.32166098944669        3.10102325298117        0.06473706486433
H           -2.57893481548801        2.35032122154539       -0.94041055304605
H           -2.72823487309906        2.35065755974288        0.82338768421342
H           -1.20925365758722       -3.59200839702105        0.64222804502025
H           -1.13193843383444       -3.55689497661071       -1.09482953243547
H           -2.61070704628413       -2.99028407427271       -0.24655608286487
H            1.46775652903481       -3.10538836974924        0.17418017088199
