25
 energy: 24.496634689731 xtb: 6.6.1 (8d0f1dd)
C            3.39421179604770        1.87058497396908        0.10604105277198
N            3.42519590333509        0.85747153743434       -0.63280760238107
C            1.54627309595131       -1.14254025813012        0.35062041250245
N            0.95853193865869       -2.36062325984693        0.19932344931170
C           -0.37770424136592       -2.24234931257988        0.00906313912459
C            0.54604935025997       -0.20161135560568        0.24364514824770
C            0.21438822828134        1.19599357971160        0.25309409942458
O            0.90685470073288        2.19911080048466        0.38612959683115
N           -1.17373911316604        1.21473502986392        0.05690773797277
C           -1.95614736622290        2.42638487759437        0.00321099126026
C           -1.72364873471438       -0.04079739627403       -0.07697134143101
O           -2.88725239782013       -0.35004928093411       -0.25379510977424
N           -0.64289338705235       -0.90827837834348        0.03605855891487
C           -1.35589894619393       -3.32671150614861       -0.17686037262002
H            3.33172112284095        1.71577604498992        1.17797294356145
H            3.47291822552517        1.00924309799346       -1.64125643328567
H            3.46640150413673        2.91262666603591       -0.21322318372502
H            2.59620600710372       -0.99463601312245        0.48121613039551
H           -1.27032429335106        3.26835002497733        0.08972236845417
H           -2.50048709262614        2.48161783192656       -0.94062446558312
H           -2.67678403687855        2.44975277227803        0.82257695315561
H           -1.29415370571564       -4.05036048594780        0.63619247434681
H           -1.18363005293375       -3.85878781400871       -1.11374128149302
H           -2.35240282347819       -2.89222833463519       -0.19932628732710
H            1.44852862361871       -3.24364505293957        0.22386493353775
