25
 energy: 42.488881816782 xtb: 6.6.1 (8d0f1dd)
C            3.17107676863314        1.32262196702543       -0.10188848454487
N            2.19395117416296        0.18686862888109       -0.27107714267314
C            2.41032519847196       -1.15832596115198        0.10122949474362
N            1.31298350663001       -2.03849042913479        0.17934084695648
C            0.23873351711349       -1.25810045703709        0.02273413667183
C            0.78185632257463        0.05820787327791        0.04888400359387
C            0.09968719986447        1.27023154105518        0.17640545844588
O            0.57994429500643        2.40477296510156        0.26230412418562
N           -1.29654333316830        1.02663565230164        0.09683492826468
C           -2.12262565778923        2.22238631478675       -0.01222918667832
C           -1.86497994266335       -0.21434145496162       -0.11414516063355
O           -3.06088563665891       -0.33592051144154       -0.27333967984154
N           -1.09653627114980       -1.43798585850393       -0.10665071650328
C           -1.49568302899984       -2.88099848677795       -0.16663611826542
H            3.64288408120600        1.38706303667888        0.90507567944980
H            3.80574229737262        1.12995811057122       -0.98311445655184
H            2.80424246839513        2.34292126501494       -0.21529002217480
H            3.31361903914281       -1.44590744658487        0.57980212469180
H           -1.46064805830038        3.08833923099552        0.03045272908644
H           -2.68565627405780        2.24897637360542       -0.94783793200017
H           -2.81222927222855        2.26013637035550        0.82619790285711
H           -1.18947583385137       -3.44842942983221        0.71875071692436
H           -1.11284422484825       -3.40154160076361       -1.04715304128737
H           -2.56924577982295       -2.85754488189536       -0.20568206119222
H            1.37770998236842       -3.04705043858117        0.20340808733500
