25
 energy: 65.611571963670 xtb: 6.6.1 (8d0f1dd)
C            3.31559983339866        1.69176222700536        0.00232257056012
N            3.05754320438645        0.67437179505634       -0.69609045019662
C            1.66407578804708       -1.01560459525603        0.38022584873971
N            1.03929310154186       -2.28120770765922        0.24107276061616
C           -0.31797531271796       -2.13907930721227        0.07040088033913
C            0.56838815950696       -0.18914304159471        0.24860953227600
C            0.19466541572357        1.17190187446135        0.28230749082419
O            0.81840988233607        2.21133875185085        0.48453353843865
N           -1.20005303581045        1.17201750485027        0.07551000516747
C           -1.95040653328562        2.39153632833413        0.01821097227659
C           -1.78740914421403       -0.02922496898213       -0.10426386894467
O           -2.97231845886789       -0.26070594056332       -0.25729340739765
N           -0.69328316856909       -0.89367516779672       -0.18079059862805
C           -1.36197813332183       -3.29210496238469       -0.17018262139064
H            3.44620824845794        1.60724439604600        1.06337514122654
H            3.43325613882891        1.02087167356873       -1.56722416484529
H            3.25515864566028        2.72289685274405       -0.34899344262854
H            2.61279706528521       -0.89691236776031        0.92979507442225
H           -1.20463548220541        3.17100707685055        0.10566210954260
H           -2.48526803976698        2.47068223213032       -0.93410924423428
H           -2.67292654935238        2.48242450894090        0.82975319945644
H           -1.26590251934215       -3.93404408445045        0.65720728483189
H           -1.15621800195463       -3.77851256070250       -1.11366676687354
H           -2.39500741497727       -2.91724139998412       -0.19943222720591
H            1.46674834915703       -3.19675658413659        0.23515584427988
