25
 energy: 0.356716071752 xtb: 6.6.1 (8d0f1dd)
C            3.20978941193497        1.22273849837693        0.02822423208088
N            2.24609735796946        0.14683659176382       -0.04003186653118
C            2.52128859403574       -1.20629554363927        0.12198025580550
N            1.37488144579850       -1.96628247444744        0.07483924314499
C            0.32866214255387       -1.13046382203575        0.03418979031799
C            0.84311731432682        0.16978534980123        0.03244756608860
C            0.09988538813401        1.34900384445747        0.05200235483107
O            0.52254789914107        2.50995431009060        0.08083931031788
N           -1.28778885104671        1.03072082793407        0.00531263019783
C           -2.19103353167061        2.17062547725073       -0.03881818882347
C           -1.84956248859797       -0.21325011743830       -0.07588330180771
O           -3.04903017846368       -0.37693052715707       -0.14079538235203
N           -1.01048223309751       -1.37331072357383       -0.02052254109078
C           -1.48401443467903       -2.73411460131090       -0.09444439367041
H            3.69403365991860        1.27809344588767        1.01516578966069
H            3.93599787268437        1.06050059840471       -0.77734519541007
H            2.73116441007531        2.18512638918465       -0.13001082497068
H            3.49298518160605       -1.60041966373979        0.21713105068319
H           -1.59486227998848        3.08276699103085       -0.00788665635424
H           -2.78303745975585        2.14856948050227       -0.95327481273901
H           -2.85789196200455        2.13860531406765        0.81984302573661
H           -1.17861093831174       -3.29214903844517        0.79393458614344
H           -1.13375972666591       -3.25260398251896       -0.98909279958935
H           -2.56397355613779       -2.66076726265980       -0.11894038947762
H            1.35840884542690       -2.97361124853079        0.06659280973057
