25
 energy: 24.811492955880 xtb: 6.6.1 (8d0f1dd)
C            3.40743092975265        1.86738781304417        0.10618787109749
N            3.45522576465978        0.85385338047856       -0.63086952016744
C            1.55285512012501       -1.12054052479073        0.35785210886107
N            0.96893329095580       -2.33671257912586        0.21179235338329
C           -0.36123914405830       -2.24987845114468       -0.00047157299479
C            0.53708374451581       -0.19295574341861        0.25432989088600
C            0.20865898532962        1.19530844744366        0.27482556431055
O            0.90299424117919        2.19908749626021        0.39750543370261
N           -1.17817724310263        1.20917347731486        0.05967021117594
C           -1.95268861848851        2.42727237952260        0.00512063916629
C           -1.72454024333420       -0.05132043060749       -0.07716100512363
O           -2.89309370430110       -0.35383498766015       -0.23266657602092
N           -0.64211150362203       -0.91267874746964        0.00117530503748
C           -1.34960209863616       -3.32983824531495       -0.17015796235712
H            3.33562422370316        1.71160721242942        1.17583346491031
H            3.47185038152415        1.01932607911607       -1.63930153498396
H            3.46363485145574        2.91095600235613       -0.21417086665113
H            2.60844661701666       -0.98357468387605        0.49086913673696
H           -1.25806187773687        3.26134641652298        0.09990189346712
H           -2.49637900508837        2.49672479377259       -0.93814744791447
H           -2.66794218621321        2.45246454894280        0.82563416826842
H           -1.30019848171504       -4.05956820550003        0.64133065912971
H           -1.17676096609739       -3.84215662464248       -1.11509734856574
H           -2.35291028814360       -2.91163186963114       -0.19325559872561
H            1.45277817911075       -3.21881308044103        0.22192217102302
