25
 energy: 17.593467371485 xtb: 6.6.1 (8d0f1dd)
C            3.18442092656410        1.27107617675752       -0.03763541156416
N            2.20648233498808        0.17435760657146       -0.15853470222116
C            2.45289075610500       -1.18812026834319        0.08781944471424
N            1.33185471986593       -2.00050716690896        0.13379634088734
C            0.26485765635728       -1.20119264436243        0.03849997462033
C            0.79532946774573        0.10487080103869       -0.01614532046681
C            0.09432442809597        1.30391412287838        0.10439511812509
O            0.55045746084379        2.45216790972163        0.17030765293163
N           -1.30070215562606        1.01806540458153        0.05124475468683
C           -2.15924883820134        2.19229675296704       -0.02549342423347
C           -1.86629263181721       -0.22902575272921       -0.08992204222396
O           -3.06654776607030       -0.36544194547977       -0.20694254014641
N           -1.07464610361726       -1.43846332393422       -0.04039793725246
C           -1.49521036556341       -2.82281444410613       -0.13102225125297
H            3.66598822287874        1.33138653682554        0.95969195507296
H            3.86878680766206        1.09205934664039       -0.88074734740870
H            2.76677049852273        2.26575440027536       -0.17145624376316
H            3.40090775259511       -1.53251803881528        0.40770351414234
H           -1.52717620707538        3.08132249842976        0.01072421429504
H           -2.73610899871186        2.19842509909173       -0.95110370197830
H           -2.83679425829325        2.19925625248258        0.82360783262373
H           -1.18750006660632       -3.38168792463544        0.75670821026329
H           -1.12320907020700       -3.33222049954664       -1.02076297341301
H           -2.57064975865870       -2.76605122966010       -0.16459930919607
H            1.35967878026219       -3.00886655267797        0.14290798607246
