25
 energy: 8.074540005696 xtb: 6.6.1 (8d0f1dd)
C            3.19559711404647        1.24685520968835       -0.00349633182993
N            2.22164412629283        0.16311337804036       -0.09427224791294
C            2.48237516042353       -1.19443518641355        0.11624892559582
N            1.35140348146288       -1.98296406185062        0.10773106597201
C            0.29347547073385       -1.16744959103174        0.03870274565443
C            0.81272835637069        0.13579205656432        0.01157560225523
C            0.09482892333224        1.32628179486582        0.07826406252119
O            0.53664665569956        2.48061841934371        0.12460052212663
N           -1.29713741118349        1.02331022160028        0.02813892249647
C           -2.17580097730359        2.18197504325016       -0.03201749826858
C           -1.86582534245807       -0.21857209376325       -0.08027166001104
O           -3.06422486039156       -0.37146154484375       -0.17347858504414
N           -1.04744112094801       -1.40764660673883       -0.01845238936107
C           -1.49061609916903       -2.77947465385865       -0.11202021978655
H            3.67982884516198        1.30509196082803        0.98796095079809
H            3.90081838864811        1.07475076575830       -0.82849229850028
H            2.74917206456345        2.22632595218126       -0.15036872239477
H            3.44787132521941       -1.56860189799840        0.31187986878322
H           -1.56045457076273        3.08191102776912        0.00191946133911
H           -2.76025355558837        2.17501240657043       -0.95201668044114
H           -2.84766669457398        2.16938247659673        0.82213194813259
H           -1.18381142629763       -3.33901985698149        0.77524713311066
H           -1.12839577059539       -3.29183036331322       -1.00494555026508
H           -2.56800361390946       -2.71439415088322       -0.14198732507225
H            1.35751589892098       -2.99106295525713        0.10671597445054
