25
 energy: 111.293169661165 xtb: 6.6.1 (8d0f1dd)
C            3.20936301044304        1.40284907514756       -0.18586689200866
N            2.37342454640522        0.27370428250958       -0.64304600928362
C            2.14505217123471       -0.87951946068857        0.24797745672259
N            1.28469458545865       -2.10879150721206        0.04468299613436
C            0.14742828610732       -1.36417381162635        0.13890483270819
C            0.78686183497065       -0.13208107796477        0.39278087567054
C            0.16386778768784        1.18488217221606        0.28126977690419
O            0.63560334281508        2.31086445284905        0.34989414288265
N           -1.23571455956646        1.01489387758665        0.09348077790359
C           -2.05788068154694        2.24105568727129       -0.00644180141323
C           -1.87735101691861       -0.20262515307017       -0.12238236640639
O           -3.06703293172834       -0.27712508897495       -0.31271443672680
N           -1.14273954287719       -1.43825606603869       -0.17938673602336
C           -1.53006159167153       -2.94216832014702       -0.20404760173869
H            3.61432152467584        1.44238364342905        0.85952205548330
H            3.79689582412451        1.23123915898386       -1.10005339039124
H            2.86094192499620        2.43665729440116       -0.26572484948686
H            3.07318191951411       -1.23002973644806        0.75835606190683
H           -1.38921709687174        3.09749457374595        0.04637003163798
H           -2.62612393228191        2.29479446773004       -0.94217086239380
H           -2.76475606668686        2.30333530781674        0.82345600716313
H           -1.20232989149183       -3.51717113076116        0.67616853362635
H           -1.11688645593519       -3.47201690616646       -1.07052578176026
H           -2.59262546415151       -2.95341568332277       -0.24325362941486
H            1.43732469281617       -3.08932947807486        0.24102768633941
