72
 energy: -99.351033524350 gnorm: 0.002673513052 xtb: 6.6.1 (8d0f1dd)
N           -1.84988699773683        2.63857287025123        2.25193898879410
C           -1.74866315958971        2.05860830714194        1.14730539434800
C           -2.89326682289216        1.85720554832957        0.18889448224678
C           -3.39261213357168        0.43064790752816        0.26939609857081
C           -4.33545795413024       -0.02934474365030       -0.60688088534426
C           -4.86797889524126       -1.32470144028198       -0.53961499878090
O           -5.81152705944752       -1.81354642810243       -1.34731145264503
C           -6.41925642588291       -0.98357477843166       -2.31216036305876
C           -4.39663654174191       -2.23471587895931        0.47453662420682
O           -4.97337186440811       -3.45361192856032        0.42978110077006
C           -4.62854982474336       -4.40237605031600        1.41305091562908
C           -3.45873774224203       -1.82203407068146        1.36245552014166
C           -2.88137261122604       -0.45265395966034        1.35135902375997
C           -2.34527399162855        2.15779801553568       -1.23362554296972
C           -1.44179225777632        1.06632747128561       -1.83764474247654
C           -0.08113583669922        1.01398632407356       -1.23885486123749
N            0.52339033819244       -0.07213272192195       -0.77153219996242
C            1.90991819785543        0.09027388903749       -0.33994865983345
C            2.88390858867747       -0.23676420858941       -1.48149163517967
C            4.29865044462119       -0.05216209743604       -1.00719292016824
C            4.95720487229947        1.15243296813629       -1.19032314499638
C            6.24787672581460        1.33432900558909       -0.71800866314377
C            6.90532086231463        0.31376671504273       -0.04604679736742
O            8.15290655857277        0.38060742403379        0.45471447034185
C            8.89890489675131        1.56415441451169        0.28495735792276
C            6.23651980317786       -0.92667119930497        0.14818991987377
O            6.94464563478522       -1.86553066932331        0.80726251513165
C            6.37287010976675       -3.13401328175656        1.02084013569230
C            4.94653100427566       -1.08443452863045       -0.33315358417833
C            0.01830940824795       -1.29408270542740       -0.66757546576515
C           -4.10188451702041        2.80587948363621        0.48738787785469
C           -4.78588688263342        2.45638192916933        1.80729409880036
C           -3.71309717270213        4.28122006900368        0.48439675283964
H           -4.69934513590495        0.62786418465054       -1.38073841604234
H           -6.87657118821206       -0.10411461982614       -1.85054588015643
H           -7.19407748131703       -1.59227585114874       -2.77363459820783
H           -5.70467163834198       -0.66819114716398       -3.07822890584618
H           -4.85591031299760       -4.03543454304049        2.41814578058911
H           -5.23845115997851       -5.27778674747893        1.20036032221264
H           -3.56989933456130       -4.67303377433539        1.35308360646959
H           -3.09597098971487       -2.47928548394760        2.13519395341230
H           -3.06383589946280        0.02855389533322        2.32358375008596
H           -3.18979153453446        2.30401677439060       -1.90661129613123
H           -1.78732624008239        3.09410870670098       -1.19970185824976
H           -1.94141183436873        0.10183829313456       -1.77079907917002
H           -1.33187613842929        1.30861189662770       -2.90177750609962
H           -0.79941128842013        1.65769078616233        0.75343481324945
H            0.51006642452910        1.91379253883475       -1.28232781588841
H            2.10200834843501       -0.57427068249208        0.50454085500522
H            2.07212330129687        1.11878917927740       -0.01124634116281
H            2.68290434799924        0.42511714808695       -2.32534765775102
H            2.72297204966624       -1.26620736733586       -1.80598544308680
H            4.47045189171420        1.96023132288748       -1.71521385485160
H            6.73647683745275        2.28062914991941       -0.88190865310158
H            8.41946122936465        2.41435929664529        0.77981866290634
H            9.04903955951138        1.79420005855135       -0.77409529280114
H            9.86253985469595        1.37142548433061        0.75261678560762
H            7.12728259619704       -3.70913431987841        1.55388793411406
H            5.46877968127396       -3.06861178805134        1.63463844067349
H            6.13896000958565       -3.63276729830353        0.07522171696585
H            4.43270568453276       -2.02350818364017       -0.19946782652659
H           -0.96457157732376       -1.52482801445627       -1.02220548650892
H           -1.78553732017136       -0.52912566414227        1.28564727077660
H            0.63709684143927       -2.08034390121693       -0.28520010342583
H           -4.82601051821555        2.64615730439568       -0.31919154479504
H           -4.09163260513609        2.58660021437748        2.63141374790979
H           -5.15439910928014        1.43299035061568        1.80364300453123
H           -5.63265684368131        3.12006329575563        1.96256965704491
H           -2.98927054846720        4.48464415679659        1.26756413348191
H           -3.30268772866423        4.59047266155644       -0.47290146616997
H           -4.59796917173463        4.88233182934859        0.67673867963813
H           -1.00363621572395        2.73872872931335        2.80389539408194
