25
 energy: 0.000000000000 xtb: 6.6.1 (8d0f1dd)
C            3.23720163006194        1.16630919979326        0.08434469647475
N            2.29877817382611        0.07527477071623        0.03981603040599
C            2.58028210190900       -1.21425402444508        0.03006176031096
N            1.43813958087363       -1.93419271955128        0.00098261760884
C            0.39035688448383       -1.05887472636071       -0.00790371836672
C            0.93510056364412        0.21347819449412        0.01709077491437
C            0.09450143893243        1.40504303904423       -0.00410947031874
O            0.49712751527797        2.54126714362870       -0.00342325688240
N           -1.25076640035757        1.06271879480407       -0.03085478223738
C           -2.21907211982101        2.15522099834493       -0.05001256985998
C           -1.81739487048744       -0.20012725993278       -0.04692818574614
O           -2.99983886758376       -0.37846417018721       -0.07008878229737
N           -0.92618586207120       -1.30210215599479       -0.03682761578324
C           -1.46982264913417       -2.64643102187190       -0.06029820460571
H            3.71247264356769        1.21471455160235        1.06488849150277
H            4.00791497605742        1.03430808813993       -0.67357694370751
H            2.69910007168542        2.09770118228144       -0.09130154882931
H            3.56654120610678       -1.63682992603973        0.04233140067262
H           -1.67107961066214        3.09322851271934       -0.02552706933167
H           -2.82428953597071        2.09428624779827       -0.95318082946668
H           -2.87644029173232        2.07745725625962        0.81450067533302
H           -1.17061996399332       -3.19584890659852        0.83242232437030
H           -1.14560257411436       -3.17511610292205       -0.95688275822323
H           -2.55549792440841       -2.55659984320617       -0.07459039797972
H            1.38130855184625       -2.94313852034425       -0.01389874181052
25
 energy: -4.469764978305 xtb: 6.6.1 (8d0f1dd)
C            3.24855405904027        1.18057427891757        0.07221526177970
N            2.31464264786590        0.08451294904888        0.03459388926085
C            2.59699912109619       -1.24688825426410        0.04152253328485
N            1.42152427308458       -1.95184543994951        0.01836305947546
C            0.39323385597234       -1.06525323866020        0.00151661771105
C            0.93366102111493        0.21136702290425        0.02599613871184
C            0.10651590050582        1.38632335174536        0.00257503169625
O            0.50703751695291        2.55025533126154        0.00292506810755
N           -1.25678643116755        1.04692070943771       -0.03198928610564
C           -2.21405676663945        2.14638161372788       -0.05736923191582
C           -1.82422232975930       -0.20237608226428       -0.05171962447116
O           -3.02120161622471       -0.38030168032520       -0.08319084392705
N           -0.93885663115575       -1.30597494894966       -0.03479794881132
C           -1.48428189957688       -2.64572202765624       -0.06247314439340
H            3.79138866088881        1.16923534182402        1.01777497266683
H            3.99998809278808        1.22518769261907       -0.74421449849856
H            2.67581183223077        2.10164608991874       -0.00955462846665
H            3.57073653111582       -1.68014262076271        0.07418608884064
H           -1.65222407796132        3.07760009932292       -0.03407842743626
H           -2.81755303593075        2.09165421538454       -0.96298620040576
H           -2.87466687957558        2.08029682825890        0.80651687404509
H           -1.19037222458376       -3.19940906143695        0.83118151061625
H           -1.15442884006969       -3.17846386026067       -0.95659140685570
H           -2.56933641453260       -2.55053230050766       -0.08357565646900
H            1.35010830245708       -2.95601740716212        0.01020774770722
25
 energy: 1.724869511461 xtb: 6.6.1 (8d0f1dd)
C            3.25987950854874        1.19796114094930        0.05356174317781
N            2.33867120963617        0.09025081214488        0.01987524152324
C            2.61263655335514       -1.28883085784636        0.06275326188133
N            1.39852829706270       -1.96975507208764        0.04855308243022
C            0.39718881642786       -1.07374558020146        0.01734939844069
C            0.93484136385930        0.20756231399643        0.03109503389469
C            0.12627998922018        1.35524194756151        0.00883911332246
O            0.51084449117282        2.54398781445367        0.01515505049750
N           -1.26405539586820        1.02722321733145       -0.03551992126819
C           -2.20420986006045        2.13720404392783       -0.06973638894280
C           -1.82612212300048       -0.20480438688824       -0.06065882467229
O           -3.03322545248519       -0.38325120317981       -0.10566261988787
N           -0.95340317779406       -1.30963075951624       -0.03058989082917
C           -1.50392904103165       -2.64393053826401       -0.06551663209403
H            3.93323631382019        1.07366654864407        0.92599442794047
H            3.95593836084972        1.53042184542210       -0.86290715438419
H            2.63262713363350        2.10645112977594        0.14564755886733
H            3.56796531529460       -1.73965336247446        0.13702872733198
H           -1.62475589078294        3.05924001157125       -0.04917672324281
H           -2.80577406547303        2.08795684413259       -0.97783887246859
H           -2.87002840088320        2.08671878818586        0.79226069499976
H           -1.22418276223374       -3.20570565312050        0.82985155714922
H           -1.16879547215635       -3.18400383909939       -0.95571686112480
H           -2.58848389960867       -2.54090016216629       -0.09881790821633
H            1.31054285643309       -2.97064644108039        0.05121080182164
25
 energy: 13.331584701265 xtb: 6.6.1 (8d0f1dd)
C            3.26501056415564        1.21756299125470        0.03231646727199
N            2.35587713325060        0.09318615221287        0.00213525400959
C            2.61774811462440       -1.31377889592996        0.07971364265671
N            1.38612033492967       -1.98074451929192        0.07799342713642
C            0.39846132041290       -1.08240932715276        0.02937329585548
C            0.93848789853058        0.20191670422490        0.02648159029207
C            0.13809188923951        1.33753384278477        0.01334409349230
O            0.50708783740631        2.53538715993048        0.03308275494087
N           -1.26847079940081        1.01630966901852       -0.03755275415544
C           -2.19613200617816        2.13198386597572       -0.07850076164707
C           -1.82665187655748       -0.20958918866175       -0.07013309379695
O           -3.03677604255193       -0.38938632038917       -0.12703051840697
N           -0.96086329006967       -1.31490980483409       -0.02692999449757
C           -1.52046818179546       -2.64499209843544       -0.07041140746085
H            4.06358699676915        0.99036336442982        0.80557927002211
H            3.89108005481524        1.77419590440810       -0.94033486166609
H            2.62195392768374        2.10591021672534        0.29098638131053
H            3.55997701148096       -1.78335019211288        0.20656031731036
H           -1.60348064663114        3.04581786790504       -0.06008724389609
H           -2.79518985128439        2.08399721766902       -0.98849384585063
H           -2.86486956178266        2.09146821897452        0.78190400827570
H           -1.25860457663146       -3.21423877021231        0.82648163793480
H           -1.18306933024995       -3.18903400001126       -0.95809841717501
H           -2.60471008318317       -2.53231687340390       -0.11620048929016
H            1.28801783095355       -2.98185458290630        0.09485514348116
25
 energy: 20.453177101976 xtb: 6.6.1 (8d0f1dd)
C            3.26916559082665        1.23046062741473        0.01562622992660
N            2.36558885543487        0.09309683799006       -0.01276226474984
C            2.61431821804351       -1.32281250719997        0.08990146366817
N            1.38272928112903       -1.98509205507917        0.10169846438586
C            0.39647131263109       -1.08965155788624        0.03557078828300
C            0.94323008665320        0.19466525925652        0.01302608549008
C            0.14217231376866        1.33148311973946        0.01745834057032
O            0.49872990186844        2.52372508660065        0.05507232718989
N           -1.27003678842254        1.01223544363960       -0.03581554911577
C           -2.19096375967723        2.12949180040810       -0.08021974146476
C           -1.82694559081158       -0.21565358214464       -0.07722694461149
O           -3.03410959646560       -0.39550229465679       -0.14377494235707
N           -0.96300461228946       -1.32080116367404       -0.02429444867464
C           -1.53319173016554       -2.64827259033594       -0.07722278179633
H            4.13733131575536        0.95037402296577        0.67766463474986
H            3.83806228682700        1.94622795285867       -0.96040622104905
H            2.65921580838612        2.08173038832583        0.37842456812087
H            3.54544507950063       -1.80814452626990        0.27465193800754
H           -1.59117224453277        3.03767284275604       -0.06308968514335
H           -2.78856925915047        2.08062308846065       -0.99081322191211
H           -2.86030433257322        2.09404016535689        0.77935792242485
H           -1.28897321173563       -3.22395204268049        0.82010437587340
H           -1.19588887060177       -3.19283579168139       -0.96400154949300
H           -2.61701899048060       -2.52592067710926       -0.13332718885900
H            1.27993360401775       -2.98815924488307        0.13143129668326
25
 energy: 22.384392668578 xtb: 6.6.1 (8d0f1dd)
C            3.27444008595977        1.23123106961599        0.00723006187726
N            2.36624803790843        0.08993571626252       -0.01831882721699
C            2.60540559935566       -1.31380299663430        0.08368273871923
N            1.38872729214669       -1.98146188331368        0.11851181443174
C            0.39142243438014       -1.09264317507138        0.03869353596850
C            0.94749221326194        0.18775493022567       -0.00030455453682
C            0.14075750980196        1.33687561401829        0.02068194149504
O            0.49268551978529        2.51255642725135        0.06970657143347
N           -1.26628679255536        1.01372330005126       -0.03417665492630
C           -2.18880168600419        2.12889404295222       -0.08474413452690
C           -1.82742787312611       -0.22087578080773       -0.08075070164302
O           -3.02855996114184       -0.39694457689158       -0.15741988374117
N           -0.96024981407889       -1.32522063791642       -0.02005625688852
C           -1.53864776695621       -2.65227113288035       -0.07936263409748
H            4.18175963804652        0.90766760217517        0.54155815244460
H            3.77225370952406        2.05541100494856       -0.95726917623313
H            2.71400532468817        2.03702806483984        0.48080375064704
H            3.52529274993329       -1.80386496986290        0.32327443394711
H           -1.59135520296103        3.03698911054055       -0.06966810107003
H           -2.78543967758907        2.07564254972819       -0.99537381353823
H           -2.85869773184677        2.09675966655844        0.77402642213433
H           -1.30723062480360       -3.22870969275958        0.81880170357271
H           -1.20074350131357       -3.19595404946893       -0.96495538158073
H           -2.62165382803889       -2.52332767303841       -0.14248383363618
H            1.28681901355945       -2.98636392835071        0.15494672311173
25
 energy: 21.196034294528 xtb: 6.6.1 (8d0f1dd)
C            3.27683250422878        1.22654944125907        0.00649733946253
N            2.35675327503373        0.09163788092348       -0.01311301815368
C            2.59745953856246       -1.29287030638625        0.07073152131264
N            1.39494580040516       -1.97095510710726        0.12743458749561
C            0.38529799438130       -1.08881252651589        0.04131367485131
C            0.94450444323028        0.18808764924300       -0.00544536532861
C            0.13475767241488        1.34478442303481        0.01866808788994
O            0.48841948898255        2.51138596877399        0.07801505949814
N           -1.26281398812365        1.01438088435448       -0.03778858049822
C           -2.19137238182179        2.12706013381874       -0.09335759838215
C           -1.82928984393945       -0.22378361833756       -0.08380217437822
O           -3.02647191255574       -0.39506755530670       -0.16807663076384
N           -0.95835951099085       -1.32634250930329       -0.01626215999430
C           -1.53704945318005       -2.65516137549459       -0.07638839575653
H            4.23976799963731        0.84014803936342        0.41874913438292
H            3.69270376886829        2.09554553099200       -0.95173149455263
H            2.77307757321938        2.00249834051274        0.59754041859822
H            3.50999941317510       -1.77521013116520        0.35281220779367
H           -1.60093652794543        3.03968402321045       -0.08087768040525
H           -2.78713528677919        2.06842653113323       -1.00413661344459
H           -2.86210199467822        2.09664060666395        0.76489788946936
H           -1.30973406692947       -3.22825363520328        0.82349992886094
H           -1.19533123188045       -3.19866999710780       -0.95985799835903
H           -2.61928288628267       -2.52626545532419       -0.14387121412792
H            1.29757428090353       -2.97640863385927        0.16158297067697
25
 energy: 15.834139228112 xtb: 6.6.1 (8d0f1dd)
C            3.27992248167742        1.21955853861997        0.00608539790650
N            2.34693429355452        0.09288955363672       -0.01155241103645
C            2.59341096431209       -1.27061330871137        0.05803516349950
N            1.40157826836037       -1.95895441068429        0.12812883886639
C            0.38212157756029       -1.08199200603550        0.03999439119826
C            0.94216831088642        0.19209100780885       -0.01256746270842
C            0.12807772963238        1.35201983472023        0.01503503929633
O            0.48652064950921        2.51312688489098        0.08521913334475
N           -1.25818718279943        1.01527648792380       -0.04036357242217
C           -2.19422701482610        2.12546025685309       -0.09282080884554
C           -1.82902643972539       -0.22458486106962       -0.08457536576148
O           -3.02238354963731       -0.39215968823581       -0.17109342979822
N           -0.95506067280150       -1.32498522307530       -0.01521842967804
C           -1.53243009228006       -2.65586014929731       -0.07488590517061
H            4.21552807266935        0.82936644120942        0.33704767329007
H            3.64556300952277        2.06264734682417       -0.90368865113328
H            2.84377076731246        1.95867482400278        0.62874133893059
H            3.50231753308741       -1.74204179287198        0.37313129904591
H           -1.60996258721775        3.04277745850648       -0.08071002566592
H           -2.79116037102459        2.06433758035111       -1.00252295196933
H           -2.86355118715264        2.09201817447542        0.76639125123570
H           -1.30445231323337       -3.22755518283850        0.82521765563457
H           -1.18889906404234       -3.19823387205399       -0.95791998004351
H           -2.61433733105051       -2.52906382315785       -0.14347020921230
H            1.30797881564209       -2.96517146961939        0.15539591734398
25
 energy: 11.665993855180 xtb: 6.6.1 (8d0f1dd)
C            3.28244706651668        1.22249139429663        0.00117773637811
N            2.34139078502536        0.10183043427128       -0.01506235752677
C            2.59667245382088       -1.26282963578409        0.04978040146019
N            1.40162304868130       -1.95395625929892        0.13003909044522
C            0.38289402868530       -1.07707645388497        0.04245289351691
C            0.93721477306071        0.19930358939603       -0.01036049362660
C            0.12264644880864        1.35476251315389        0.01486795838490
O            0.48377843138441        2.52123241338379        0.08436749634957
N           -1.26162720639873        1.01529384823027       -0.04465718679933
C           -2.19964582138676        2.12437550507258       -0.09830560762879
C           -1.83026360247183       -0.22381526076293       -0.08619933986476
O           -3.02514957255080       -0.39325890721058       -0.17509247791585
N           -0.95553122606456       -1.32347085549529       -0.01357047073609
C           -1.52867837407202       -2.65549958636255       -0.07207323162894
H            4.24511446821507        0.78600451615207        0.28297769633032
H            3.60125879933023        2.04626266503246       -0.90098479196505
H            2.87669122888659        1.95755016372781        0.69857331683011
H            3.50387938141852       -1.72722093847111        0.38522723688329
H           -1.61600513420870        3.04272691479896       -0.08608958538549
H           -2.79533695964550        2.06132583358341       -1.00861457039446
H           -2.86869819640643        2.08941057314062        0.76099828317085
H           -1.29884195130385       -3.22612371789693        0.82898485774577
H           -1.18215956216035       -3.19867836634447       -0.95403350085011
H           -2.61076104943923       -2.53171059927862       -0.14201947761791
H            1.30930241021085       -2.95990118127726        0.15465002059219
25
 energy: 8.723510758349 xtb: 6.6.1 (8d0f1dd)
C            3.28448554424283        1.22909444337344        0.00181778380435
N            2.34005390679657        0.10910313096189       -0.01680139922530
C            2.60326164025749       -1.26479247987791        0.04789131414892
N            1.40057799095843       -1.95384836156804        0.12909520759320
C            0.38666913709884       -1.07496261561851        0.04466752428222
C            0.93470888959169        0.20450229492976       -0.00398109464799
C            0.12007556259231        1.35443241536610        0.01746850967869
O            0.48296048894615        2.52628182210017        0.07892336294012
N           -1.26609627544873        1.01609335625809       -0.04574921339435
C           -2.20319861980600        2.12510736410260       -0.09902318445626
C           -1.83000607420979       -0.22201778988430       -0.08620078389541
O           -3.02739052742212       -0.39569102908679       -0.17444695062091
N           -0.95550712526444       -1.32187855472444       -0.01346399666897
C           -1.52575452480978       -2.65381790178640       -0.07241063169204
H            4.25186924672491        0.78146487191301        0.27824022025729
H            3.58020518941818        2.02002698312942       -0.89377894505806
H            2.88573297008887        1.95407734625362        0.70126061075379
H            3.50945428724301       -1.72427202958245        0.38640738205559
H           -1.61731782925637        3.04210048045876       -0.08534935904511
H           -2.79788398961751        2.06281920726467       -1.00992155320983
H           -2.87221489017638        2.08839812496738        0.76018123038134
H           -1.29399335426459       -3.22537598677517        0.82844248739940
H           -1.17827594462600       -3.19691562499016       -0.95462189953609
H           -2.60822381730927       -2.53169573452921       -0.14212855429549
H            1.30802278618748       -2.95920513048342        0.15051582859817
25
 energy: 7.540923224472 xtb: 6.6.1 (8d0f1dd)
C            3.28888756599652        1.23215559796428       -0.00089265621874
N            2.34119656710607        0.11105721514719       -0.02743741001856
C            2.61012911147559       -1.27246913780981        0.03878705435291
N            1.39943612781945       -1.95721533209846        0.12469457159413
C            0.39091198811475       -1.07562777134614        0.04433560542940
C            0.93503335914514        0.20575554647026       -0.00205590793833
C            0.12047994079075        1.35272863203071        0.01678548522553
O            0.48538627896311        2.52785721458929        0.06673670828093
N           -1.26857576993014        1.01747921474096       -0.04650580678574
C           -2.20403611041832        2.12688928888661       -0.09980568933061
C           -1.82836033856389       -0.21994216532105       -0.08507490187118
O           -3.02786644322932       -0.39742216896504       -0.16911582180153
N           -0.95484374377857       -1.32070571819672       -0.01276490158014
C           -1.52404396786843       -2.65183991738522       -0.07047719839519
H            4.23625224359704        0.78565510402093        0.28014722387276
H            3.56619288049268        2.02019648321638       -0.88776648592653
H            2.88766954043397        1.94569600751401        0.72077425195367
H            3.51460411960814       -1.72755413437406        0.38877013127381
H           -1.61601541822715        3.04236189331364       -0.08609817932920
H           -2.79853019501367        2.06517754202595       -1.01080581638626
H           -2.87330587665662        2.09020488003002        0.75927422986194
H           -1.29029927948427       -3.22372791278878        0.83010127323478
H           -1.17733089909310       -3.19547013438338       -0.95299690122877
H           -2.60678785455337       -2.53020720182454       -0.13873184186061
H            1.30603084120938       -2.96200442328491        0.14715687973880
25
 energy: 7.950846879683 xtb: 6.6.1 (8d0f1dd)
C            3.28780796171663        1.23305362910484        0.00224238025619
N            2.34010088867330        0.10994151672160       -0.02738082921292
C            2.60997805475041       -1.27445954935786        0.03526645624315
N            1.39917853538078       -1.95835753497772        0.12295608863109
C            0.39063073168192       -1.07692271555353        0.04425610474923
C            0.93497340928711        0.20401861097522       -0.00076130446936
C            0.12064853698244        1.35234182437829        0.01529023909537
O            0.48562667265698        2.52620316068722        0.06276515966262
N           -1.26869504749266        1.01791524138637       -0.04609444852204
C           -2.20349719021419        2.12747439160372       -0.09990446212251
C           -1.82819606607140       -0.21999385140773       -0.08451862847162
O           -3.02748479824724       -0.39782430442841       -0.16687799218162
N           -0.95485030253621       -1.32088630370705       -0.01260933194165
C           -1.52438759051089       -2.65185484325984       -0.07046921868153
H            4.24424192976239        0.78728526566813        0.27886975630620
H            3.55919306133578        2.03249209103703       -0.88195257087439
H            2.88941500741615        1.93802683649316        0.71847689897725
H            3.51320245968914       -1.72734681312379        0.39191259425755
H           -1.61527065226023        3.04268972045637       -0.08659234189021
H           -2.79795030285787        2.06590613700416       -1.01098695660602
H           -2.87320356837551        2.09151360223176        0.75889418171482
H           -1.29058123145106       -3.22364592711035        0.82992668799665
H           -1.17804540901786       -3.19523740370499       -0.95316494996861
H           -2.60712080578690       -2.53012804071909       -0.13825456894507
H            1.30650038342473       -2.96317613822541        0.14574495214467
25
 energy: 7.750154481818 xtb: 6.6.1 (8d0f1dd)
C            3.28690215973086        1.23298188610985        0.00128312373391
N            2.33858984261224        0.10878736582331       -0.02925449464359
C            2.60930052095085       -1.27445185287490        0.02904178961981
N            1.39962354458995       -1.95848340599657        0.12170352774300
C            0.38985425552911       -1.07752389498229        0.04465038441060
C            0.93519921120932        0.20259303086632       -0.00003745680529
C            0.12052032620747        1.35283855067047        0.01327534371289
O            0.48588460150051        2.52506515626829        0.05974398889664
N           -1.26791034283231        1.01827801135953       -0.04562603657250
C           -2.20287633575862        2.12759837067864       -0.10024223686817
C           -1.82823908174395       -0.22027965126421       -0.08368115694736
O           -3.02706610412341       -0.39768530533602       -0.16553486848262
N           -0.95456770167583       -1.32091932026729       -0.01184050368686
C           -1.52453388291726       -2.65206149012520       -0.06992855425157
H            4.24681785437406        0.78888552386465        0.27331752759773
H            3.55456175131498        2.03706331931501       -0.87358758517893
H            2.89324143249611        1.93221824974436        0.72516071702483
H            3.51060030959524       -1.72412298474986        0.39368657882195
H           -1.61513369697516        3.04308114718410       -0.08739942660437
H           -2.79728354130546        2.06580980597169       -1.01142540534559
H           -2.87286873936211        2.09210287665297        0.75834212865331
H           -1.29084308152167       -3.22363055448901        0.83043899422409
H           -1.17832073427952       -3.19517076838072       -0.95270299347928
H           -2.60727792422924       -2.53045850256504       -0.13757493409627
H            1.30804002454960       -2.96348696130595        0.14522544467094
25
 energy: 7.847366090852 xtb: 6.6.1 (8d0f1dd)
C            3.28649486659595        1.23259505102753       -0.00053362723256
N            2.33858529279278        0.10748676086739       -0.03281428977861
C            2.60969330260350       -1.27627575676027        0.02201195083994
N            1.39963951395180       -1.95925788848346        0.12011656016357
C            0.38966985849829       -1.07806271119277        0.04530713922508
C            0.93621364715312        0.20140793572151        0.00088087315756
C            0.12126242469694        1.35273004667918        0.01177594106534
O            0.48662532197788        2.52437917499794        0.05713243553045
N           -1.26703653528737        1.01842438000440       -0.04484093972607
C           -2.20190655808941        2.12765305871702       -0.10036739766078
C           -1.82810082207288       -0.22032118474366       -0.08294719964713
O           -3.02688421878403       -0.39729241712197       -0.16470941501017
N           -0.95434373021821       -1.32069540941797       -0.01096445641561
C           -1.52482970044004       -2.65192755435642       -0.06931076010966
H            4.24641362192933        0.79215762384014        0.27548259541035
H            3.55207800678383        2.04401587530255       -0.87032594819249
H            2.89189791241125        1.92657203967280        0.72901993674462
H            3.50881998482048       -1.72320143409808        0.39665419993666
H           -1.61446890823240        3.04329379811568       -0.08772394815013
H           -2.79617171242520        2.06586679733248       -1.01173950641156
H           -2.87228423546088        2.09253230691658        0.75791164980266
H           -1.29133397803858       -3.22358772237606        0.83098953415158
H           -1.17878176062627       -3.19487192814647       -0.95219010358978
H           -2.60761699319641       -2.53026374379958       -0.13690383600667
H            1.30858006659226       -2.96432849652640        0.14512250805068
25
 energy: 7.634044814277 xtb: 6.6.1 (8d0f1dd)
C            3.28609859889539        1.23253545825651       -0.00257213110703
N            2.33890563843715        0.10718223808472       -0.03542604203368
C            2.61025612475783       -1.27692013106616        0.01726886106274
N            1.39967747125449       -1.95926095873572        0.11928027783689
C            0.38970373281619       -1.07779176598491        0.04603026094303
C            0.93691908547926        0.20140876014911        0.00136733962662
C            0.12157759170291        1.35273520833217        0.01164500950466
O            0.48684104051712        2.52449778578356        0.05693662516304
N           -1.26646580521433        1.01833258676800       -0.04424778766070
C           -2.20151845838472        2.12747886111919       -0.10024619761867
C           -1.82800540085941       -0.22036613284643       -0.08283316961905
O           -3.02677207166144       -0.39689032522005       -0.16516209929713
N           -0.95414272404028       -1.32043868367571       -0.01032980571079
C           -1.52476950362342       -2.65179564509696       -0.06892712792363
H            4.24535895623380        0.79390759892862        0.27969692452279
H            3.55180389321259        2.04277599639592       -0.86969728434901
H            2.89011649199288        1.92499862594998        0.72885766604410
H            3.50760018700606       -1.72200046536274        0.39908234379862
H           -1.61438229734959        3.04334136184663       -0.08745741048564
H           -2.79555943783000        2.06560848552707       -1.01178340722336
H           -2.87212287730609        2.09224108222657        0.75783349307051
H           -1.29142599316167       -3.22360954653150        0.83131184119171
H           -1.17863428003197       -3.19459905115795       -0.95185008748804
H           -2.60755085351768       -2.53002972462004       -0.13672416170375
H            1.30870555861070       -2.96431301689775        0.14497996560304
25
 energy: 7.516396982116 xtb: 6.6.1 (8d0f1dd)
C            3.28570320920288        1.23218339617504       -0.00470424251531
N            2.33989691820386        0.10677224513362       -0.03756121374598
C            2.61098248506081       -1.27751480326894        0.01347603890265
N            1.39961916807494       -1.95908994789222        0.11898300041193
C            0.38990464348365       -1.07717882110406        0.04681145679267
C            0.93776424745154        0.20181201494425        0.00099280417913
C            0.12198454696593        1.35256991042321        0.01243095092362
O            0.48687595056237        2.52468210671070        0.05910483762600
N           -1.26578498933607        1.01804269962765       -0.04371827089965
C           -2.20117855441585        2.12721009823035       -0.09990033257453
C           -1.82773963795899       -0.22046859798919       -0.08315087297557
O           -3.02643019704277       -0.39629446120186       -0.16692456472006
N           -0.95389581970094       -1.32026581875122       -0.00973503669835
C           -1.52465551836438       -2.65167719611975       -0.06866794602308
H            4.24424827038102        0.79540524247039        0.28690164898197
H            3.55340355382926        2.04012314223409       -0.87301779832449
H            2.88623224282203        1.92533203775971        0.72522797068901
H            3.50579068390030       -1.72101789488897        0.40308185354362
H           -1.61437522243229        3.04333053765966       -0.08684381126083
H           -2.79502923584440        2.06510039083488       -1.01150877807435
H           -2.87187622540051        2.09164466097458        0.75809097194253
H           -1.29160354789319       -3.22369748896792        0.83148434428634
H           -1.17837921846635       -3.19439032725632       -0.95159779233998
H           -2.60735379626425       -2.52955582921364       -0.13684182461990
H            1.30811071111713       -2.96402869435191        0.14462050263988
25
 energy: 7.479852084937 xtb: 6.6.1 (8d0f1dd)
C            3.28574657535715        1.23231423010275       -0.00437262691693
N            2.33983620577429        0.10679427372702       -0.03702702733721
C            2.61109412179126       -1.27733641477675        0.01417341029216
N            1.39963569718575       -1.95901958939584        0.11919724408604
C            0.39004568948983       -1.07713035013863        0.04634608309221
C            0.93752830705195        0.20193449423782        0.00015450485374
C            0.12177036660258        1.35258342951721        0.01273121166771
O            0.48672853787086        2.52462137031724        0.05991364455224
N           -1.26593070447274        1.01810728362274       -0.04397463820661
C           -2.20137785647194        2.12729385148169       -0.09976744058551
C           -1.82761574901187       -0.22046682347124       -0.08330637905488
O           -3.02627897616382       -0.39643133504624       -0.16704112882644
N           -0.95383005076384       -1.32037658507658       -0.00994759605239
C           -1.52453676017611       -2.65170585638231       -0.06877796197494
H            4.24447039848910        0.79489340416993        0.28568733812184
H            3.55345642141091        2.03901531250740       -0.87342706304773
H            2.88678183112948        1.92630764162442        0.72450591711010
H            3.50554889519126       -1.72080948267837        0.40474405440856
H           -1.61446441996867        3.04332978528038       -0.08681208670909
H           -2.79538753539187        2.06509168374090       -1.01122385979989
H           -2.87184924910777        2.09166505602469        0.75840556506743
H           -1.29143738947848       -3.22368618447026        0.83136843758895
H           -1.17830411790471       -3.19446940277594       -0.95170245228882
H           -2.60721409435757       -2.52955495303539       -0.13688223890917
H            1.30779852386075       -2.96393623693451        0.14406898501592
