25
 energy: -42.484484698106 xtb: 6.6.1 (8d0f1dd)
C            3.21381346239452        0.92933055932783        0.19747462608108
N            2.30746257210416       -0.02871893576608        0.17485742216563
C            2.53696349621115       -1.35924719530288        0.21058667575792
N            1.33220082577355       -2.04590348971770        0.13991496039478
C            0.34781290055042       -1.13517369191109        0.07491995785788
C            0.91469836674267        0.13057092265303        0.12351925669778
C            0.12589103689468        1.32491603494960        0.04668613125883
O            0.51612654510006        2.47171835892609        0.05929682408407
N           -1.25465391209032        1.01815085022258       -0.06223456202566
C           -2.18633474224932        2.13669983550077       -0.12178885959942
C           -1.84071533234417       -0.22122919883745       -0.09289213277512
O           -3.03890482280118       -0.37040697715477       -0.17626349981361
N           -0.99373244901761       -1.33240797312585       -0.02622374828816
C           -1.56328304161096       -2.66103910022803       -0.06813153608543
H            4.25789555280856        0.67620207181306        0.12046416066009
H            3.96370121558359        3.14773767720623       -1.06305048079279
H            2.91642132495002        1.91388223389947        0.47591604685834
H            3.49480924950323       -1.80881760142871        0.32583102672817
H           -1.60571863641063        3.05548967298031       -0.11218286048769
H           -2.77895934991016        2.07445727711592       -1.03395966356653
H           -2.85623697235061        2.10125786472426        0.73779338769436
H           -1.31964752689835       -3.22033114351471        0.83825305362938
H           -1.21316040937811       -3.20665789844098       -0.94742784171267
H           -2.64247730281411       -2.54058759879985       -0.13455542902403
H            1.24692714508908       -3.04639548291940        0.13001664988446
