25
 energy: -42.123485612019 gnorm: 0.005056597208 xtb: 6.6.1 (8d0f1dd)
C            3.06415848555478        1.13234838898889        0.35019487553443
N            2.27524779119170       -0.04636859097006        0.10067369834021
C            2.86195413391964       -1.26909200997028       -0.07913959386334
N            2.27297291130027       -2.36759123548754       -0.23270418999655
C            0.20536521407342       -1.19757086749388        0.02780042017812
C            0.89783769422147       -0.03906356740819        0.09325726162128
C            0.09258301786278        1.21250364452917        0.10434759529121
O            0.55926165285785        2.31033301520303        0.27218978847449
N           -1.25007402241903        1.00908778084871       -0.15972237836337
C           -2.09110243042109        2.18865554074602       -0.31952210514577
C           -1.91517360636484       -0.19557448011330       -0.21667301290657
O           -3.09608476214883       -0.31512690842651       -0.37114232943660
N           -1.09934056897356       -1.34426050151329       -0.04887428123343
C           -1.77814423515671       -2.61328644082387        0.12038923888651
H            2.96114432909953        1.44718347193738        1.39339384293274
H            4.11166834791402        0.92546490641909        0.14317314156802
H            2.72749476549232        1.96118799722382       -0.27457591713860
H            3.94704656834522       -1.28873885923986       -0.08627913997744
H           -1.45685947471134        3.04388907472355       -0.54201045250429
H           -2.79874857695520        2.00992759803719       -1.12838251619177
H           -2.65261655713853        2.38163977903784        0.59571928477393
H           -1.05843604230851       -3.38145888097976        0.38996623310224
H           -2.29687781912253       -2.88890776640380       -0.79927873466765
H           -2.52801283056057       -2.51020008779887        0.90590526656289
H            1.20516752854821       -2.34674245946469       -0.20753437794110
