  72
        -99.40477473
 N         -2.1282093554        1.9530330802        2.9143755066
 C         -1.9960222082        2.4457107708        1.7683556375
 C         -2.8972863128        2.1133070297        0.6095683332
 C         -3.3877845776        0.6728168830        0.5527665703
 C         -4.2528003886        0.3073750725       -0.4835489684
 C         -4.7372873477       -0.9836552973       -0.6085148831
 O         -5.5885400141       -1.4082530214       -1.5672705736
 C         -6.1359788823       -0.4746265343       -2.4673540644
 C         -4.3356093545       -1.9756201491        0.3255726782
 O         -4.8545664553       -3.2055616985        0.1318385785
 C         -4.5953828853       -4.2124493632        1.0820357711
 C         -3.4676599243       -1.6113875667        1.3418998057
 C         -3.0043956897       -0.3072217273        1.4540817554
 C         -2.1604300108        2.4458380486       -0.7115353133
 C         -1.2229657626        1.3439819905       -1.2101179862
 C         -0.1414596194        0.9704836462       -0.1872778925
 N          0.7394524464       -0.0458687829       -0.7198704907
 C          1.8758145426        0.2966092110       -1.3033236618
 C          2.8420766738       -0.6192920259       -1.9487598686
 C          4.2167088493       -0.4168401153       -1.3382374422
 C          4.9084484738        0.7657819239       -1.5395183668
 C          6.1562665735        0.9614081583       -0.9679885242
 C          6.7408862470       -0.0283910791       -0.1912336172
 O          7.9445717339        0.0502600598        0.4061213127
 C          8.7169063922        1.2178712884        0.2445040196
 C          6.0422576367       -1.2503266485        0.0083316727
 O          6.6902059657       -2.1656111555        0.7560110277
 C          6.1126345846       -3.4349702801        0.9471934924
 C          4.7874758857       -1.4176072583       -0.5584280499
 C          0.2533875689       -1.4048146903       -0.7119570852
 C         -4.1470640869        3.0506543705        0.7708166558
 C         -5.0254921359        2.5921336942        1.9305397767
 C         -3.7696943091        4.5202053977        0.9543951443
 H         -4.5665552622        1.0488806980       -1.1991467243
 H         -6.6757026513        0.3196326424       -1.9427736979
 H         -6.8346372866       -1.0381076889       -3.0827938332
 H         -5.3662401452       -0.0332776237       -3.1090423984
 H         -4.9338838438       -3.9175100058        2.0796217928
 H         -5.1615882112       -5.0805570624        0.7503543697
 H         -3.5312803217       -4.4672874803        1.1182780903
 H         -3.1526022091       -2.3373934535        2.0739315203
 H         -2.3712826465       -0.0564034545        2.2888279409
 H         -2.8938132677        2.6353097700       -1.4959449049
 H         -1.5850161366        3.3639862840       -0.5825157612
 H         -1.8041257636        0.4534300039       -1.4538960943
 H         -0.7391123700        1.6903486356       -2.1275433285
 H         -1.2540843272        3.2226664186        1.5350718148
 H          0.4498470718        1.8523125321        0.0658044178
 H         -0.6188727665        0.5822267133        0.7133972831
 H          2.1445994967        1.3404631963       -1.2604918155
 H          2.9035296540       -0.3693132676       -3.0150511722
 H          2.5417798340       -1.6613443280       -1.8621667830
 H          4.4863764629        1.5439533488       -2.1568301042
 H          6.6719436275        1.8912286807       -1.1428645836
 H          8.2097793850        2.0940853253        0.6600372170
 H          8.9560266064        1.3980307171       -0.8077622036
 H          9.6366635583        1.0377724456        0.7975570497
 H          6.8360669290       -3.9994619793        1.5321977277
 H          5.1718514773       -3.3695265886        1.5032585817
 H          5.9415194076       -3.9450559640       -0.0058857076
 H          4.2515242926       -2.3420542829       -0.4109065916
 H          0.0987806315       -1.7764021017       -1.7268445111
 H         -0.6946799983       -1.4445721998       -0.1803750302
 H          0.9638316059       -2.0597039261       -0.2048170099
 H         -4.7270462695        2.9702907629       -0.1536369070
 H         -4.4433232764        2.5240766333        2.8462853866
 H         -5.4580232523        1.6153470379        1.7317194026
 H         -5.8333097615        3.3028043625        2.0840719797
 H         -3.2761863679        4.6813236672        1.9095131788
 H         -3.1227287804        4.8760834992        0.1568152634
 H         -4.6735572364        5.1247256141        0.9418123649
 H         -1.5104645862        2.3041203105        3.6403910142
