  25
        -42.07829599
 C          2.5290839662        0.8593709227       -1.2635426334
 N          1.9502563756       -0.0805046607       -0.3291636081
 C          2.7259115964       -0.9610120506        0.3630057138
 N          2.3927708072       -1.7801926591        1.2574980667
 C         -0.1864937477       -1.1064185562       -0.0704506785
 C          0.5545095732        0.0236261905       -0.0833665192
 C          0.0626698421        1.3195647151        0.2242122688
 O          0.6388565371        2.3403371212        0.4378898935
 N         -1.4815516124        1.4094372617        0.2633761267
 C         -1.9798382759        2.6046728828        0.9541446105
 C         -2.1963037660        0.6850102120       -0.4637760200
 O         -2.7262204288       -0.0696602703       -1.1583643201
 N         -0.7854863190       -2.1069306054       -0.2492286697
 C         -1.3559897136       -3.3222977503        0.1107102461
 H          2.6628112230        1.8413768665       -0.8020773576
 H          3.4970078016        0.4909921201       -1.5946142944
 H          1.8757460402        0.9673699510       -2.1301899420
 H          3.7727674569       -0.9443261707        0.0768538373
 H         -1.3591877268        2.7635921199        1.8339171700
 H         -1.8927819977        3.4742756398        0.3025014713
 H         -3.0167772280        2.4585982907        1.2438041007
 H         -1.3217524714       -3.4953493290        1.1888273278
 H         -0.8123161042       -4.1166312166       -0.4051544259
 H         -2.3890843944       -3.3344401468       -0.2420446673
 H          1.4386448647       -1.8207974460        1.5970024561
