25
 energy: 54.330596583434 xtb: 6.6.1 (8d0f1dd)
C            3.43458083869621        0.95335647333893        0.12365091612745
N            2.52952313435944       -0.16102626994891        0.04059929516292
C            2.84586613606560       -1.43811915021512       -0.08653679715474
N            1.71272704225878       -2.18331267401844       -0.10252963045345
C            0.63919602471722       -1.33126909956725        0.02489065672224
C            1.17309644101549       -0.05012699849743        0.11727643906063
C            0.28031402784212        1.13252296951123        0.22613890633741
O            0.73120693698508        2.26706364772336        0.25276155248663
N           -1.01425444153877        0.80608309555453        0.28224514185099
C           -3.61760897373174        3.62859468437356       -0.35736472727636
C           -1.58337250542963       -0.35856225254289        0.20532782983168
O           -2.74877833173230       -0.64184113077003        0.21334090237935
N           -0.65245301292483       -1.59723220439214        0.05734616225864
C           -1.22844519144474       -2.91325892099995       -0.03356461400797
H            3.93860142155014        0.95177138686911        1.08873646790442
H            4.17944763662291        0.90267261643841       -0.66867123070301
H            2.84741532557472        1.86873720606399        0.03319619234136
H            3.83379443380321       -1.83200638345763       -0.17318946586503
H           -2.78020151649424        4.29233787326290       -0.32532537823643
H           -3.96484594469902        3.24860178992141       -1.29421200049872
H           -4.06037252977505        3.28946433554232        0.55585629111902
H           -0.93523880401018       -3.53258529676942        0.81715580874254
H           -0.95603800659743       -3.40708893318621       -0.96971374600832
H           -2.30952703402912       -2.77138231264321       -0.00539185669715
H            1.67183274594511       -3.18389146343936       -0.21170931543879
