25
 energy: -5.548224448359 xtb: 6.6.1 (8d0f1dd)
C            3.26185644348165        1.16295139775830        0.09567682195825
N            2.31201175705241        0.10006736988734        0.03708521950559
C            2.60815238384271       -1.24750459941695        0.02486012719501
N            1.42315806929083       -1.94570949823300       -0.01169932770225
C            0.40615984567260       -1.06159612275877       -0.00121275474019
C            0.91960735948448        0.22788820614371        0.03562173407272
C            0.10346020888475        1.38609943748983        0.01804905748091
O            0.49016553475653        2.55924774634202        0.03166363128804
N           -1.30117677841418        1.06755856187520       -0.01768701579829
C           -2.26842819513964        2.18056515077526       -0.07544081098744
C           -1.82692071955753       -0.19279245677153       -0.02220286755984
O           -3.02256117428765       -0.40521683018122       -0.03778483026290
N           -0.93510138678796       -1.29515167860684       -0.01251699143431
C           -1.45262175907184       -2.64584565245767       -0.05307206050434
H            3.75625663681195        1.19397528700964        1.07306074875348
H            4.02484813854679        1.03332510865927       -0.67591467751924
H            2.72384799329357        2.09318060942685       -0.06202979315307
H            3.58505562083390       -1.66913527814972        0.02542820665224
H           -1.72187688724729        3.12312802754642       -0.05813699239991
H           -2.87398588257676        2.13494537987534       -0.97926253485590
H           -2.93344039048021        2.13286646494124        0.78710692658770
H           -1.14075747342124       -3.20871892846370        0.83051419570497
H           -1.11989304259753       -3.17236858950017       -0.95257039521852
H           -2.53845554134206       -2.57214229022557       -0.06454251477711
H            1.36153650764238       -2.95048408183196       -0.04065145621025
