25
 energy: 57.188179718282 xtb: 6.6.1 (8d0f1dd)
C            3.45165089408304        0.93061049520975        0.19349193139764
N            2.45595957069775       -0.09450015807887        0.01874015140169
C            2.76626196879866       -1.37446483272667       -0.12630009913092
N            1.63135069373979       -2.11304478873737       -0.14988927047136
C            0.56840561521405       -1.24278990432539       -0.02956219661837
C            1.10222179339690        0.03250271818088        0.05934153186513
C            0.20057119584743        1.20805528871269        0.21745014277400
O            0.66809725418278        2.31911557979872        0.39233829435004
N           -1.10317858088301        0.91542703818739        0.19615857948584
C           -3.29875743756314        3.18526447514679       -0.40250824119351
C           -1.65913638855945       -0.25635800125503        0.20881617817427
O           -2.79750876805159       -0.58837974871051        0.37637401486578
N           -0.72594787360417       -1.47427378057295        0.00970184388215
C           -1.23349460911639       -2.81168361884310        0.02612920172290
H            3.97791451847447        0.74706861155061        1.12309348763334
H            4.17321827905734        0.86645641864297       -0.62059996833495
H            2.98579656379854        1.90847785244771        0.23378490721496
H            3.74979568281557       -1.75057310445220       -0.26188400677519
H           -2.56200761696488        3.93455136686454       -0.39217402893377
H           -3.67292780061180        2.83867304823580       -1.32867894533617
H           -3.80958093664419        2.92920343122634        0.48244162487981
H           -0.80549717153951       -3.36264859025767        0.86600402312193
H           -0.95889957835854       -3.30026845340991       -0.90797262090965
H           -2.31778186032893       -2.80222609212264        0.13541948357758
H            1.61473865180758       -3.11734980557286       -0.23004146292824
