25
 energy: 58.316744645233 xtb: 6.6.1 (8d0f1dd)
C            3.42495795933842        0.98896946099595        0.17403323051403
N            2.40772184139502       -0.01752133270944       -0.00442651819935
C            2.70076138717624       -1.31150690298358       -0.10590903744172
N            1.55294973074256       -2.03769320210689       -0.16034814304307
C            0.50540451397959       -1.15723795692476       -0.06779528755843
C            1.03835691168945        0.11628135093485        0.02817890907576
C            0.12368732751120        1.29134314097412        0.17389407175597
O            0.58325365024927        2.40684110634015        0.38682964390734
N           -1.20446725649193        1.00839169384250        0.10554170132327
C           -3.01958603011149        2.86704698852902       -0.36679225258424
C           -1.74316868389835       -0.18893953256777        0.16699341020979
O           -2.88875017559877       -0.51805343303692        0.36014993946615
N           -0.79809076726567       -1.37641371657857        0.00390020225260
C           -1.27027097439602       -2.72795857407494        0.02316281755303
H            3.96374384575608        0.79015352112406        1.11204937373257
H            4.14046823050501        0.91276478325098       -0.64639121740075
H            2.99388651894594        1.98149802378044        0.20323209775439
H            3.66247759718583       -1.71158429462538       -0.30496505309959
H           -2.33272802544785        3.66396391624726       -0.36363363542042
H           -3.45720079288047        2.59445158886929       -1.29014054942082
H           -3.56473232888854        2.66794497936517        0.50868425117421
H           -0.82945294832207       -3.25293381940822        0.87369003284751
H           -0.94453611216516       -3.20678761780624       -0.90015212855023
H           -2.36065827667627       -2.75029812258218        0.06835228775907
H            1.52074061026755       -3.03731176646245       -0.24576812739001
