25
 energy: -42.442123849366 xtb: 6.6.1 (8d0f1dd)
C            3.25313727978000        1.14431093242176        0.04446397723377
N            2.32915358164092        0.04812291980349        0.01902191256187
C            2.63576906344140       -1.26213679088502       -0.00578925318610
N            1.49876503004946       -1.98964717242635        0.00151460757696
C            0.43938639104667       -1.14327161134662        0.03789014276287
C            0.93831884013363        0.16582224560488        0.05149096302030
C            0.11597143724879        1.30651847200320        0.07497402046332
O            0.46968296977927        2.48704158943677        0.07365941295137
N           -1.27642865723511        0.95578346980688        0.11072039465704
C           -2.16936901876751        1.95778497426953        0.16135684698118
C           -1.79288129897338       -0.34989731576557        0.09549526561314
O           -2.98635441739617       -0.57286548994183        0.11991675278355
N           -0.88398712679520       -1.41035726180420        0.05581560126909
C           -1.37772587921036       -2.77058259531846        0.02867099000026
H            3.74360749650158        1.21067666445206        1.01844274476877
H            4.01368972965500        1.01507102947275       -0.72598232275949
H            2.69277230240739        2.06257224788121       -0.13200240292787
H            3.62559689807987       -1.66181784784101       -0.03770262515160
H           -1.79758933529182        2.96090100509163        0.15148617692742
H           -3.25697272743797        4.43799713093405       -1.54410727102130
H           -3.21374939983580        1.71947968606446        0.18120287939859
H           -1.06224190320785       -3.31271267561379        0.92251060989378
H           -1.02201094649521       -3.28843126454979       -0.86406388780569
H           -2.46549251279281       -2.72039038775425        0.00580262503034
H            1.45904841613222       -2.99644656874559       -0.01574233489355
