  72
        -99.37929635
 N         -2.0407374818        1.8639632644        2.6238992451
 C         -1.8800214614        2.2647909820        1.3284193991
 C         -2.3600305838        1.6391286575        0.2329680452
 C         -3.1210390591        0.3886390576        0.3086602511
 C         -4.2778212809        0.2033416215       -0.4585530572
 C         -5.0084763661       -0.9678798262       -0.3915532894
 O         -6.1516254048       -1.2156858742       -1.0664051115
 C         -6.7100539042       -0.2000053739       -1.8644908502
 C         -4.5634132839       -2.0281324558        0.4453983774
 O         -5.3321999958       -3.1359470257        0.4276424707
 C         -4.9860631782       -4.2267075727        1.2475130199
 C         -3.4098740051       -1.8487327530        1.1928936168
 C         -2.7033686639       -0.6562505706        1.1310266464
 C         -2.1090025029        2.2260346292       -1.1281033486
 C         -1.2445488637        1.2873144219       -2.0070981082
 C          0.1098204711        1.1540306753       -1.4392752813
 N          0.6514399288        0.0437324787       -0.9624363233
 C          2.0107837959        0.0535605628       -0.4771589406
 C          3.0092718100       -0.3743419284       -1.5704855330
 C          4.4173274245       -0.2615353537       -1.0580198179
 C          5.0850305010        0.9511436088       -1.1003484164
 C          6.3752640968        1.0686664876       -0.6071853841
 C          7.0238417036       -0.0279186289       -0.0586766461
 O          8.2742819831       -0.0305821983        0.4432425788
 C          9.0334936281        1.1554724860        0.3960415110
 C          6.3454924033       -1.2757996516       -0.0075549747
 O          7.0497106805       -2.2904745236        0.5366209081
 C          6.4708070204       -3.5717056734        0.5990540080
 C          5.0545670038       -1.3682712045       -0.5026834967
 C          0.0052817702       -1.2409222124       -1.0912520387
 C         -5.1048639324        3.5986123592        1.0867930533
 C         -5.3406270973        2.6925951905        2.0186789981
 C         -4.4073140418        4.8952693000        1.3165035753
 H         -4.6243944840        1.0100054247       -1.0821513634
 H         -6.9378005680        0.6936800612       -1.2748807747
 H         -7.6347831318       -0.6149294770       -2.2606933490
 H         -6.0496405293        0.0679192731       -2.6959531405
 H         -4.9786339285       -3.9482108497        2.3058213111
 H         -5.7576147887       -4.9755328614        1.0775488829
 H         -4.0116661413       -4.6431992802        0.9719661454
 H         -3.0504326854       -2.6372177612        1.8345271210
 H         -1.7994629884       -0.5512296701        1.7120729746
 H         -3.0517562806        2.3957584609       -1.6488424853
 H         -1.6052427554        3.1878691205       -1.0292767353
 H         -1.7458699777        0.3270051578       -2.1084609272
 H         -1.1674321265        1.7452422810       -2.9981968988
 H         -1.2923123539        3.1654213992        1.2095421404
 H          0.6912089021        2.0560076366       -1.3276984718
 H          2.0900574490       -0.6229375489        0.3769478317
 H          2.2651077622        1.0596799285       -0.1387299862
 H          2.8756594808        0.2779831265       -2.4356853308
 H          2.8004607081       -1.4001373378       -1.8761300490
 H          4.6063240133        1.8165802461       -1.5329338169
 H          6.8711759258        2.0239071692       -0.6599364597
 H          8.5765854200        1.9478859647        0.9974449725
 H          9.1653336328        1.5060264542       -0.6322404995
 H         10.0040594108        0.8982007385        0.8165480210
 H          7.2226364405       -4.2097049930        1.0591551848
 H          5.5673670248       -3.5751277244        1.2172923044
 H          6.2336818967       -3.9539641946       -0.3987010433
 H          4.5333090715       -2.3123362074       -0.4752743948
 H         -0.0904695976       -1.5303538454       -2.1410584119
 H         -0.9896064712       -1.2153903908       -0.6406554820
 H          0.5973442429       -1.9934806592       -0.5773694986
 H         -5.4348054000        3.4295556064        0.0700233113
 H         -2.7840852431        1.2040583293        2.7997084674
 H         -5.8584722352        1.7720327277        1.8094218583
 H         -5.0405235273        2.8476078861        3.0423381665
 H         -4.1165910535        5.0075426015        2.3578115609
 H         -3.5198893153        4.9642384735        0.6876739984
 H         -5.0635406548        5.7217760416        1.0463206729
 H         -1.9107515919        2.5649111248        3.3356373809
