  25
        -42.17188524
 C          3.9478861067        0.2694609054        0.1128437542
 N          2.8075009748       -0.5940511014        0.0052166658
 C          2.8138723471       -1.9224019662       -0.0609621015
 N          1.5547783234       -2.3960099386       -0.0984181781
 C          0.6361263565       -1.3390829499       -0.0528394025
 C          1.4758496283       -0.1484798315        0.0163934001
 C          1.0660853492        1.1182230634        0.0752492774
 O          0.6301256696        2.2000325067        0.1265629685
 N         -2.9108851118        2.0540366210       -0.3170505383
 C         -2.6849394025        3.4364756450       -0.2806643271
 C         -3.2594422148        1.0251263136        0.1597628902
 O         -3.5425343192       -0.0568331570        0.4585590363
 N         -0.6307470623       -1.3589850389       -0.0625746654
 C         -1.4698836038       -2.5018898303       -0.1079855104
 H          4.0925145249        0.5878568478        1.1487614203
 H          4.8406986429       -0.2547902199       -0.2232583546
 H          3.7977300750        1.1568135512       -0.5032518439
 H          3.6973839489       -2.5295102129       -0.0893052593
 H         -1.6119826960        3.6217545897       -0.1836171517
 H         -3.0336814797        3.8671411044       -1.2213175362
 H         -3.2133085076        3.9084947486        0.5513731707
 H         -1.1118678726       -3.3290262762        0.5151752156
 H         -1.5792735704       -2.8520859151       -1.1391815699
 H         -2.4528202974       -2.1883928061        0.2456528498
 H          1.3055159372       -3.3701842013       -0.1714831890
