  25
        -42.15761915
 C          5.2683116177        0.4168956617       -0.6112970384
 N          3.9550580250       -0.0482787119       -0.5695844657
 C          3.1810286782       -0.1725048888        0.4405878151
 N          1.9240299823       -0.4608568342        0.3796244125
 C         -0.3673654288       -0.5674482194        0.1383651044
 C          0.8887866037       -1.1822349702        0.2327273469
 C         -0.5751274036        0.8901094026        0.2087678332
 O          0.2352752819        1.7675802710        0.3639707687
 N         -1.9420355864        1.0474283403        0.0521950761
 C         -2.6378594606        2.3085961485        0.0595112489
 C         -2.5779076018       -0.1644298669       -0.1090831177
 O         -3.7415212710       -0.3788610331       -0.2743050047
 N         -1.5681436760       -1.1529488503       -0.0469892594
 C         -1.8651293745       -2.5469910363       -0.1947007866
 H          5.6986104145        0.6201703126        0.3782780730
 H          5.8844402873       -0.3237367809       -1.1303804179
 H          5.2956902065        1.3347334367       -1.2081642670
 H          3.5294763413        0.0888285621        1.4556032352
 H         -1.9006784925        3.1076002454        0.0116984070
 H         -3.3113911247        2.3574694591       -0.7967175939
 H         -3.2296834150        2.4072715426        0.9718369417
 H         -1.5544894012       -3.1049179333        0.6903951968
 H         -1.3628550742       -2.9588567251       -1.0721898728
 H         -2.9441137914       -2.6391364142       -0.3204848206
 H          0.9651329971       -2.2608892545        0.1995291704
