  25
        -42.13203421
 C          3.2407956125        1.1237201615        0.0116593286
 N          2.2551592976        0.0807261923       -0.0004928791
 C          2.4751867810       -1.2554597502       -0.0026775025
 N          1.3677528928       -1.9604799952       -0.0032774332
 C          0.3634857682       -1.0581703409       -0.0004830866
 C          0.9031600630        0.2393698847        0.0016412436
 C          0.0680613341        1.4153795552       -0.0026805280
 O          0.4581289505        2.5613087044       -0.0094719896
 N         -1.2862928279        1.0812100356        0.0000621246
 C         -2.2430649104        2.1738700950        0.0004875304
 C         -1.8421559536       -0.1940048688        0.0028141057
 O         -3.0338003247       -0.3569698067        0.0065549801
 N         -0.9627032127       -1.2832132719        0.0003855062
 C         -1.4921735202       -2.6244620319       -0.0016891422
 H          3.7957803843        1.1084139923        0.9521379913
 H          3.9459933732        0.9851104436       -0.8090996554
 H          2.7422472401        2.0874339520       -0.0922051612
 H          3.4572963929       -1.6872109338       -0.0043073790
 H         -1.6898575039        3.1115372946        0.0050512905
 H         -2.8796868144        2.1146930777       -0.8839794912
 H         -2.8851807284        2.1083416087        0.8804306521
 H         -1.1265157286       -3.1669354073        0.8712033743
 H         -1.1598063053       -3.1519787565       -0.8971329118
 H         -2.5790614568       -2.5669297997        0.0180216736
 H          2.6149669998       -4.8618925604       -0.0557468494
