72
 energy: -99.261846126145 gnorm: 0.003638811900 xtb: 6.6.1 (8d0f1dd)
N           -1.93391577189496        3.17557272456919        1.97980386577326
C           -1.77248543238807        2.37066284984479        1.03691601387301
C           -2.87368140824399        2.08728466141057        0.03493313886748
C           -3.39725509147759        0.67001520077385        0.20060505770335
C           -4.40929579032376        0.22493541770826       -0.65272911368087
C           -4.93995212993466       -1.04791458677077       -0.53710052728559
O           -5.92852299878301       -1.55785242705309       -1.30178850732813
C           -6.55554054978935       -0.73148182991596       -2.25402614038308
C           -4.43557284743339       -1.92649585583885        0.45940242697150
O           -5.00418496223192       -3.15045138799581        0.49051276468699
C           -4.58697406499846       -4.07172248519765        1.47126650336956
C           -3.43562284674018       -1.47512511544905        1.30424433447168
C           -2.92575893884999       -0.18751922582196        1.17834507325001
C           -2.24598254347603        2.27153551992764       -1.38544533368943
C           -1.32211378759269        1.12572856701924       -1.82864458642238
C           -0.01604006167604        1.10157052411741       -1.13374734636318
N            0.57845506823094        0.01518757566871       -0.64580929250071
C            1.95593278140984        0.07329043701258       -0.21789352362277
C            2.91869352122096       -0.39530670767420       -1.32723656440443
C            4.34273579195292       -0.18630297169504       -0.89480952508416
C            4.97679112474028        1.02323029617444       -1.12525972098040
C            6.28141371631666        1.23313521639543       -0.70553690315315
C            6.97736488118931        0.23512078533631       -0.03985447939033
O            8.24345126884772        0.32595905632527        0.41103783714944
C            8.96139747982576        1.52038624806859        0.20463237259044
C            6.33415173480045       -1.00915478123560        0.20421515796568
O            7.08460968070415       -1.92313819154035        0.85305160222583
C            6.54700948272989       -3.19779352342435        1.11106619908272
C            5.02942191033172       -1.19539936316628       -0.22335179473131
C           -0.05586622748540       -1.28062418679593       -0.66997017608122
C           -3.99465602292361        3.05554998958101        0.19346325141708
C           -5.74762149499766        0.84659380641929        2.83983141484767
C           -3.83463179827266        4.50596027794708        0.02275431750990
H           -4.78965693415696        0.89814482353897       -1.40387634152959
H           -6.99467858996182        0.15549664809848       -1.78736478572053
H           -7.34697052400816       -1.33752461249649       -2.69046512804317
H           -5.85989217611804       -0.42546346739358       -3.04176707314603
H           -4.77134796560348       -3.69343199839550        2.48134802010453
H           -5.18516107464071       -4.96562861671155        1.30678561402957
H           -3.52682195939528       -4.32081319880203        1.36036139039146
H           -3.05268124375537       -2.11261715473594        2.08415786767099
H           -2.17002821744978        0.14041229283861        1.87521586192430
H           -3.05999719210145        2.34306014903908       -2.10644689596464
H           -1.70135378941969        3.21609680883457       -1.40620008743941
H           -1.84896373131859        0.17823228782155       -1.72974654744717
H           -1.12253375432592        1.28525979170604       -2.89677882615928
H           -0.83778663671108        1.82828343144597        0.81637272733842
H            0.56254892535653        2.01287622855076       -1.12175045191652
H            2.08431345546331       -0.55552273412064        0.66651540730975
H            2.20655236664809        1.10074823031772        0.05429919466285
H            2.71688592989084        0.18443539088345       -2.22997966556168
H            2.74018367292525       -1.44884755944869       -1.54570561280152
H            4.46008146137510        1.81312972304635       -1.64932542631324
H            6.75094473688015        2.18160198479265       -0.90847931874529
H            8.47673427113130        2.36957289952886        0.69604410865722
H            9.08364984960150        1.73550800130121       -0.86121652011143
H            9.93888420050679        1.35420531971485        0.65326296928933
H            7.33600451728694       -3.75012988526027        1.61779555244967
H            5.67049799926461       -3.13959937410517        1.76454553096456
H            6.28026994962411       -3.71617114919434        0.18472975593273
H            4.53506845567108       -2.13845951259556       -0.04974893772542
H           -0.16063461932895       -1.65389542691133       -1.69167097116324
H           -1.04679673746111       -1.22768009063656       -0.21236530705919
H            0.54907346102457       -1.98476518651558       -0.10442798599744
H           -4.97584873338182        2.66663692547536        0.41260890465572
H           -4.88922041848100        0.84136912498628        3.47476364870993
H           -6.08719828892888       -0.05762761981680        2.38609282491542
H           -6.29635085180893        1.75196820436658        2.70587596218027
H           -2.79726640782385        4.81429595144150        0.13406615927610
H           -4.18074541386341        4.82316360585551       -0.97138633619997
H           -4.45021996924955        5.04070837270116        0.74754463333427
H           -1.14877609914530        3.33167439862311        2.60470313118164
