25
 energy: -42.090122317901 gnorm: 0.007839981175 xtb: 6.6.1 (8d0f1dd)
C            3.16448068823948        1.25384855603263        0.01633581382018
N            2.23282494268126        0.16229079163480       -0.00039028577498
C            2.55089427035306       -1.14039678313029       -0.00771446093161
N            1.39659059837510       -1.84594658313275       -0.00706936433119
C            0.33482139875763       -0.99119550962621        0.00063047266742
C            0.86616197843630        0.29236432151684        0.00593172113224
C            0.01487298897073        1.46191457554131       -0.00121147072529
O            0.38883236630513        2.61142723151126       -0.01218654289280
N           -1.33623267065778        1.11158467358329        0.00188704153565
C           -2.30545737751191        2.19403281853454       -0.00053525906904
C           -1.88217271391428       -0.16160104898481        0.00312563833483
O           -3.06878259989145       -0.34698941082883        0.00488072253595
N           -0.98547461684376       -1.24597509295388        0.00081204394548
C           -1.51396655687052       -2.59340021381023       -0.00370760410935
H            3.66968306063990        1.30457805745599        0.98324481872791
H            3.92038999732223        1.11142148043695       -0.75578045230374
H            2.62891316907812        2.18765720128399       -0.15328736871746
H            4.35621502887927       -3.29615034839174       -0.01179217624069
H           -1.76432878930033        3.13830658937447        0.00789385343171
H           -2.93715737148952        2.12939224031082       -0.88852306148412
H           -2.95070357597120        2.11998310628419        0.87680794239854
H           -1.18442361547852       -3.13533718497005        0.88393474898281
H           -1.19554184753950       -3.12515497615634       -0.90160136976672
H           -2.60169323262576       -2.52388699281072        0.00320550901635
H            1.36168599415634       -2.85452895710521       -0.01371929228209
