25
 energy: 0.000000000000 xtb: 6.6.1 (8d0f1dd)
C            3.23720163006194        1.16630919979326        0.08434469647475
N            2.29877817382611        0.07527477071623        0.03981603040599
C            2.58028210190900       -1.21425402444508        0.03006176031096
N            1.43813958087363       -1.93419271955128        0.00098261760884
C            0.39035688448383       -1.05887472636071       -0.00790371836672
C            0.93510056364412        0.21347819449412        0.01709077491437
C            0.09450143893243        1.40504303904423       -0.00410947031874
O            0.49712751527797        2.54126714362870       -0.00342325688240
N           -1.25076640035757        1.06271879480407       -0.03085478223738
C           -2.21907211982101        2.15522099834493       -0.05001256985998
C           -1.81739487048744       -0.20012725993278       -0.04692818574614
O           -2.99983886758376       -0.37846417018721       -0.07008878229737
N           -0.92618586207120       -1.30210215599479       -0.03682761578324
C           -1.46982264913417       -2.64643102187190       -0.06029820460571
H            3.71247264356769        1.21471455160235        1.06488849150277
H            4.00791497605742        1.03430808813993       -0.67357694370751
H            2.69910007168542        2.09770118228144       -0.09130154882931
H            3.56654120610678       -1.63682992603973        0.04233140067262
H           -1.67107961066214        3.09322851271934       -0.02552706933167
H           -2.82428953597071        2.09428624779827       -0.95318082946668
H           -2.87644029173232        2.07745725625962        0.81450067533302
H           -1.17061996399332       -3.19584890659852        0.83242232437030
H           -1.14560257411436       -3.17511610292205       -0.95688275822323
H           -2.55549792440841       -2.55659984320617       -0.07459039797972
H            1.38130855184625       -2.94313852034425       -0.01389874181052
25
 energy: -3.970156741734 xtb: 6.6.1 (8d0f1dd)
C            3.23982097577188        1.18720605909277        0.08595491132579
N            2.32860138950121        0.08213191701092        0.03655871422827
C            2.62623705727854       -1.26248361264817        0.02943485501813
N            1.43343895665222       -1.93781441108096       -0.00106725389310
C            0.40439702871029       -1.04823551873675       -0.00900197347516
C            0.94335417073015        0.22604131771565        0.01426471745235
C            0.10039405499338        1.40166993905071       -0.00402013402358
O            0.48824208130701        2.57053585009884       -0.00221589208462
N           -1.26467051083681        1.05832683363640       -0.03001245713460
C           -2.23544060665144        2.14972347661044       -0.04860131700263
C           -1.82387756597338       -0.19401941146953       -0.04691144053563
O           -3.02015683819486       -0.38027241468896       -0.07004377730047
N           -0.92907865869433       -1.29054422230198       -0.03702229594474
C           -1.46684427085548       -2.63279900846238       -0.05987323154857
H            3.70079346010898        1.25633074165881        1.07414136127103
H            4.01649549852881        1.06143260442179       -0.66728753846283
H            2.68277539470289        2.10643489432631       -0.10465847362665
H            3.60939446430126       -1.79324782575841        0.04152897363015
H           -1.68680352967218        3.08850636480210       -0.02414243916697
H           -2.84379694030557        2.09357561377664       -0.95149317536503
H           -2.89575500060199        2.07637986863769        0.81556939326121
H           -1.16274516248169       -3.18231890554746        0.83286905985928
H           -1.13623688723612       -3.16272393388499       -0.95514207081216
H           -2.55276234522889       -2.54652076513829       -0.07522588429630
H            1.35643845208228       -2.93828684894921       -0.01656873522586
25
 energy: 2.815698309737 xtb: 6.6.1 (8d0f1dd)
C            3.23964072798095        1.20928638787339        0.08693285066429
N            2.36568224804705        0.07571431234469        0.02974189843943
C            2.67439690768748       -1.31827685682316        0.02777225550065
N            1.42612330240252       -1.93401130592809       -0.00403266045333
C            0.42014801872859       -1.03426668767627       -0.01084638851405
C            0.95943550788397        0.23847288983375        0.01053785325441
C            0.11232581034580        1.39476642289661       -0.00322605399833
O            0.46591751586732        2.58559455146729       -0.00024929640041
N           -1.27684552866174        1.05777259288421       -0.02823304454294
C           -2.25334512035673        2.14607141764580       -0.04593877629712
C           -1.82237303376266       -0.18506995088201       -0.04619960594558
O           -3.02323990482849       -0.38241510317191       -0.06947520957933
N           -0.92778196422394       -1.27241781488417       -0.03713962045742
C           -1.45860420940918       -2.61340671608067       -0.05917307912586
H            3.67696702371943        1.32389258757462        1.08540308266843
H            4.03537075513932        1.10676917475174       -0.65054243609861
H            2.65534754919894        2.11074509594894       -0.12924684187226
H            3.63231091354121       -2.00425066413485        0.03872175663033
H           -1.71208024759546        3.08951433093759       -0.02149393929463
H           -2.86723049904212        2.09001198322973       -0.94692463228950
H           -2.91842325125703        2.07202546623590        0.81636464810105
H           -1.15174037863662       -3.16219223519398        0.83433488476834
H           -1.12237304031095       -3.14458479780269       -0.95287964681757
H           -2.54495375838125       -2.53145756863308       -0.07640658212674
H            1.32753932385983       -2.92925891024133       -0.02076752006597
25
 energy: 9.706348634091 xtb: 6.6.1 (8d0f1dd)
C            3.23287926489783        1.22067827441829        0.08646145654992
N            2.38550172036590        0.06195042621195        0.02319192004635
C            2.69594253505610       -1.35377035914878        0.02542324599044
N            1.42527933295121       -1.93600817215890       -0.00647101608112
C            0.42915493253248       -1.03056154043431       -0.01244369481137
C            0.97250019164323        0.24089260088001        0.00807598704636
C            0.12400284004467        1.39558506712399       -0.00221158966869
O            0.45659714975108        2.58936327067548        0.00116528282090
N           -1.27735886349708        1.06431446857098       -0.02643366328963
C           -2.26133637177562        2.14700660868033       -0.04305670521061
C           -1.81698474721382       -0.17887974921699       -0.04531266726522
O           -3.01699598612878       -0.38234953853460       -0.06861553811995
N           -0.92175355089331       -1.26156721748102       -0.03714814611567
C           -1.45112761898931       -2.60134935729991       -0.05837934929414
H            3.64359761468280        1.37580403669150        1.09377375639220
H            4.05184017612666        1.14069787559733       -0.62954522310785
H            2.62870524440406        2.10544613925452       -0.15620941902943
H            3.63211596909255       -2.12899823815550        0.03433487496865
H           -1.73237085520555        3.09673912724458       -0.01854529831678
H           -2.87852407498001        2.08521716245352       -0.94227814172321
H           -2.92855053192689        2.06617169239121        0.81791503338191
H           -1.14486858353756       -3.14679781339754        0.83706952110619
H           -1.11239581857738       -3.13134923207564       -0.95148605569593
H           -2.53757363974713       -2.51868866962967       -0.07754070139444
H            1.31393833886017       -2.93051826048882       -0.02469997303157
25
 energy: 11.286459202972 xtb: 6.6.1 (8d0f1dd)
C            3.22668268029377        1.22341935342216        0.08585379819557
N            2.38954231410876        0.05525788263137        0.01944467100801
C            2.69907267392731       -1.36294289823269        0.02362430600422
N            1.42792039001305       -1.93804526577920       -0.00749439273883
C            0.43127791759327       -1.03169626927949       -0.01293046866565
C            0.97733014875308        0.23920344215897        0.00766519138552
C            0.12965432981572        1.39846878594746       -0.00169419860513
O            0.45639744330178        2.58890556573298        0.00145497175096
N           -1.27374494880728        1.06854030639615       -0.02542324368387
C           -2.26113746722345        2.14829582071920       -0.04147561103544
C           -1.81398143807625       -0.17693408077547       -0.04460829856617
O           -3.01255360927471       -0.38086503118702       -0.06800080338956
N           -0.91791447739158       -1.25881356475752       -0.03690284916402
C           -1.44872628927111       -2.59842302432109       -0.05784613244698
H            3.61951203668604        1.39273778194933        1.09704611327565
H            4.05770341870671        1.14996372446331       -0.61581166721723
H            2.61819578654613        2.10000250740062       -0.17216984455769
H            3.62853377582034       -2.15845199038601        0.03087566913699
H           -1.73885133322982        3.10118060468098       -0.01692793365162
H           -2.87891110187829        2.08293039946930       -0.94020897256132
H           -2.92818549941060        2.06330899287882        0.81943518205962
H           -1.14395021126483       -3.14196631039117        0.83872202343016
H           -1.10946847098434       -3.12771831096416       -0.95057808656005
H           -2.53515773617693       -2.51455812312553       -0.07822439338378
H            1.31297433535948       -2.93277169647928       -0.02679113387211
25
 energy: 11.278741975890 xtb: 6.6.1 (8d0f1dd)
C            3.22332213953925        1.22397620806489        0.08556637413403
N            2.39041208202437        0.05228056297103        0.01634056059728
C            2.69838527400353       -1.36399962606199        0.02205159281935
N            1.42998271445130       -1.93847336046037       -0.00806896782590
C            0.43125599364027       -1.03279728835394       -0.01302889491822
C            0.97958633813352        0.23751660544273        0.00782805709562
C            0.13273528031237        1.40033950497085       -0.00160205070215
O            0.45668747535540        2.58874767244966        0.00132358396759
N           -1.27046204661685        1.06981703411535       -0.02468610991356
C           -2.25922046750102        2.14840830601608       -0.04034001153820
C           -1.81278008795028       -0.17663051925474       -0.04397127994240
O           -3.01046553316018       -0.37947563823825       -0.06739568518664
N           -0.91618447356757       -1.25824711290603       -0.03650777590020
C           -1.44841096791001       -2.59812299052004       -0.05749801062751
H            3.60222568746259        1.39957106318655        1.09934745163958
H            4.06194598602224        1.15082771644065       -0.60534501800435
H            2.61549576865169        2.09593026540527       -0.18394686794423
H            3.62551896842720       -2.16188045777504        0.02816296406122
H           -1.74001796053356        3.10264414403728       -0.01578695961820
H           -2.87707912504371        2.08178969549830       -0.93893526283899
H           -2.92582116045412        2.06182209845583        0.82078591614153
H           -1.14470068201421       -3.14084251691692        0.83958967628484
H           -1.10878246559771       -3.12712857095246       -0.94989787143076
H           -2.53480283354730       -2.51372377585892       -0.07874195482187
H            1.31338876380906       -2.93332041758376       -0.02820955938059
25
 energy: 10.946794471579 xtb: 6.6.1 (8d0f1dd)
C            3.22279855222401        1.22390006480103        0.08558144986772
N            2.39079081995118        0.05162473973584        0.01403660736343
C            2.69761762195300       -1.36278570275892        0.02098179208022
N            1.43044053878297       -1.93808055612668       -0.00831586330223
C            0.43073376549826       -1.03301422387976       -0.01294401599318
C            0.98030668394963        0.23688683359317        0.00803948169474
C            0.13384844407910        1.40058442695427       -0.00172225618104
O            0.45657100230467        2.58906001890692        0.00100274394764
N           -1.26913166440661        1.06923713327639       -0.02421533475003
C           -2.25791356975427        2.14792642763946       -0.03968618596493
C           -1.81281688994594       -0.17691702921826       -0.04353258785370
O           -3.01037299797978       -0.37889722448785       -0.06694695288006
N           -0.91613253068041       -1.25842855760271       -0.03609919549440
C           -1.44878240344706       -2.59855472743686       -0.05735338238185
H            3.59377792223832        1.40230058171431        1.10103986466708
H            4.06556406159764        1.14897090209216       -0.59926406397539
H            2.61652119420954        2.09412145593649       -0.19066192876917
H            3.62412678218122       -2.15841448473411        0.02663641505973
H           -1.73906167773588        3.10230050250596       -0.01512658196912
H           -2.87582335482710        2.08148348986995       -0.93825084880196
H           -2.92431618563149        2.06135469272401        0.82158131695350
H           -1.14544948505750       -3.14126470874515        0.83980981218873
H           -1.10886506638274       -3.12748425526938       -0.94963553303832
H           -2.53511519582651       -2.51402042999084       -0.07899277556657
H            1.31289830064202       -2.93286076732745       -0.02892808075353
25
 energy: 10.711566369105 xtb: 6.6.1 (8d0f1dd)
C            3.22305719406559        1.22379967383876        0.08568246364986
N            2.39120887453934        0.05154426874748        0.01201437826262
C            2.69733408102038       -1.36182186628788        0.02015863641099
N            1.43027209216782       -1.93773104944735       -0.00838584210848
C            0.43041930993449       -1.03284661932478       -0.01274192032909
C            0.98048468371941        0.23687108709408        0.00825097443397
C            0.13428228245296        1.40028329179722       -0.00185377689637
O            0.45640666231465        2.58930671002318        0.00060501318707
N           -1.26887577312022        1.06849100810544       -0.02384258535862
C           -2.25735653992368        2.14755725329108       -0.03928418106492
C           -1.81305837738639       -0.17714423444358       -0.04319322519611
O           -3.01071794215694       -0.37882299985973       -0.06664345819067
N           -0.91642756411141       -1.25866881462640       -0.03563852796247
C           -1.44900390159215       -2.59890548899993       -0.05726440727148
H            3.58907088150880        1.40396080719944        1.10228657985817
H            4.06861124194444        1.14719717343843       -0.59520284781443
H            2.61819245379502        2.09343016785841       -0.19479875560572
H            3.62342269953054       -2.15562751978857        0.02558073341728
H           -1.73806716561778        3.10173734613690       -0.01471411096304
H           -2.87530413397249        2.08146146519676       -0.93784571513057
H           -2.92372004990787        2.06126194250270        0.82203201519534
H           -1.14582585403720       -3.14186639529514        0.83983388074104
H           -1.10890075524390       -3.12776741753074       -0.94956331048039
H           -2.53529317078119       -2.51429076597362       -0.07910096710427
H            1.31200343879404       -2.93238042148014       -0.02933714753244
25
 energy: 10.608420420284 xtb: 6.6.1 (8d0f1dd)
C            3.22347002856250        1.22367774542663        0.08580657238063
N            2.39155221686141        0.05161133860353        0.01015573440430
C            2.69738737914744       -1.36146453912492        0.01959346025016
N            1.42994168395476       -1.93764303636589       -0.00826707720088
C            0.43043778356696       -1.03256781831779       -0.01242670620572
C            0.98033335423430        0.23722205484672        0.00844227004108
C            0.13435627142919        1.39993480275909       -0.00201274228243
O            0.45634189834242        2.58936963721163        0.00016182493693
N           -1.26928307802758        1.06810552714080       -0.02355748248458
C           -2.25744587268349        2.14749028171970       -0.03908431062365
C           -1.81318322883702       -0.17718372790565       -0.04296032976639
O           -3.01096371198320       -0.37913311926389       -0.06652939976954
N           -0.91661531887124       -1.25885655000199       -0.03510088233507
C           -1.44893145343385       -2.59903776170870       -0.05717883118554
H            3.58673269541633        1.40469764471060        1.10308279055090
H            4.07073327866665        1.14610842039633       -0.59272214199277
H            2.61969046976543        2.09337826348802       -0.19683688971952
H            3.62304084770545       -2.15443622873975        0.02483160467473
H           -1.73754308475778        3.10139012735578       -0.01448899689193
H           -2.87537730733035        2.08162013802784       -0.93766924102795
H           -2.92386217030930        2.06139353453397        0.82220279409898
H           -1.14581412636841       -3.14236010835737        0.83977140966191
H           -1.10879565880989       -3.12776690430899       -0.94961016955159
H           -2.53521627085557       -2.51435685506870       -0.07906240982784
H            1.31122804255111       -2.93216426488501       -0.02950695398693
