72
 energy: -99.381624165856 gnorm: 0.003486041808 xtb: 6.6.1 (8d0f1dd)
N           -2.37228004924432        2.97165780161623        2.53006895601079
C           -2.17831402649262        2.14189123182287        1.61463809387767
C           -3.12709519970818        1.92993864093268        0.46212603808880
C           -3.72866636584474        0.54411207281997        0.55084232146967
C           -4.65031255257413        0.11802084958335       -0.55075454006029
C           -5.01802269911850       -1.32559373639051       -0.53738812746785
O           -5.71297188121824       -1.87863771515703       -1.53793382394288
C           -6.14049371131777       -1.09474347807903       -2.62729942344754
C           -4.69550190690764       -2.15441988953776        0.54227531486281
O           -5.13114114049176       -3.43253796634884        0.44684618266419
C           -4.87011672768386       -4.32344925730868        1.50804159543098
C           -3.95836537299368       -1.63205661292364        1.60371481416653
C           -3.47287888451764       -0.31297559786053        1.57344997507142
C           -2.22514837635799        2.00337903363031       -0.82048015614841
C           -1.35509926107635        0.80001668676966       -0.96779200839914
C           -0.04672318939690        0.81366967386407       -0.65619034995269
N            0.79568985858259       -0.24882599519470       -0.65445462137715
C            2.18662125772480       -0.09425182908989       -0.32724198733352
C            3.11460255041634       -0.17684599485214       -1.55721372176255
C            4.53886603371107       -0.00341531495578       -1.11701606046974
C            5.19245150234492        1.21045397156410       -1.26092085268630
C            6.49055964538128        1.37797617691635       -0.80402772464013
C            7.16046744105004        0.33509942184162       -0.17951309465854
O            8.41192993822089        0.38659861596901        0.31241042505823
C            9.14688465352416        1.58345350326749        0.20121557369618
C            6.49809143475312       -0.91526712451393       -0.02508410262396
O            7.21771291124931       -1.87249507890049        0.59330471224570
C            6.64459963562572       -3.14154190045997        0.79823461610749
C            5.20372567452321       -1.06017440893819       -0.49788285182740
C            0.32914624963890       -1.55287452924412       -1.04863465438145
C           -4.25451243107578        2.99827906500033        0.38723447927123
C           -5.18871327900567        2.89934282382871        1.59213916650385
C           -3.72531659882633        4.42455065825792        0.26580935153774
H           -5.58749580264539        0.69575973863490       -0.45325512984666
H           -6.78652946577690       -0.27349726465479       -2.30416426603664
H           -6.70608799730977       -1.76766365474345       -3.26887853637538
H           -5.29450819221984       -0.68921019351395       -3.19133151628281
H           -5.32723501179680       -3.98232707384207        2.44133165134623
H           -5.32179636000641       -5.26760881698956        1.21022553095484
H           -3.79544013188965       -4.46760237310965        1.65687926807570
H           -3.72554093878560       -2.24584006404864        2.45673904729379
H           -2.86638524944140        0.00602824864197        2.40670360791319
H           -2.87423154603058        2.11275480668587       -1.69162536677778
H           -1.60754725543141        2.89871117865452       -0.74876233722543
H           -4.24551660402619        0.40209082369788       -1.52907940403772
H           -1.83549790447386       -0.11304915851542       -1.28053930609555
H           -1.28179859050545        1.50901625740096        1.53982820207086
H            0.41474269218571        1.74620865068286       -0.35713747413611
H            2.47487242053775       -0.87442274825070        0.38605313084970
H            2.33337583079434        0.87369269331242        0.15655705111010
H            2.83816168984071        0.60485012550173       -2.26561863417760
H            2.98555115207718       -1.14494190383026       -2.04384333372809
H            4.69290340735480        2.03781591184689       -1.74117509123672
H            6.97452951465727        2.33147878176370       -0.93825349072163
H            8.65488005320977        2.40600676060142        0.72915983272936
H            9.30251189427347        1.86177851151057       -0.84533668147610
H           10.10886205457872        1.37947544728198        0.66751428306088
H            7.40557371365782       -3.72667752761809        1.31096350291381
H            5.75076904189799       -3.08078102347568        1.42755203996023
H            6.39309572796878       -3.62675065903275       -0.14992351108430
H            4.69734956273330       -2.00735511536732       -0.39606424394140
H            0.06127136268860       -1.57592945670887       -2.10871459787096
H           -0.55087747359893       -1.83253475819765       -0.46390016861465
H            1.11040170497733       -2.28720293356912       -0.87047372195819
H           -4.83177760620524        2.78671931023309       -0.52085720863576
H           -4.65595645987235        3.19102210034775        2.49131461593630
H           -5.56454759039264        1.88762239307025        1.72771737402049
H           -6.03507142044079        3.56812009394835        1.45766926949528
H           -3.11403490405899        4.67610971690419        1.12654374575418
H           -3.14357289144272        4.56366188771344       -0.64144550499645
H           -4.56534500588269        5.11371031916771        0.23219150353631
H           -1.65521695708600        3.05656669241073        3.24417719592926
