72
 energy: -99.419023889775 gnorm: 0.008719069027 xtb: 6.6.1 (8d0f1dd)
N           -2.70221788429963        3.13388954694104        2.23123934433794
C           -2.28322566203786        2.23682886305209        1.28432162769004
C           -2.83189801105253        2.46154355216778        0.08069702369952
C           -4.70588807632670        0.06888891053102        1.70481283408151
C           -5.22196398306025       -0.07114441629932        0.42117804687162
C           -4.90385853222690       -1.17922019107241       -0.35215215897417
O           -5.34264981730143       -1.41032074474095       -1.61268336679337
C           -6.32424624824640       -0.55851490200420       -2.15460421270715
C           -4.05089174203531       -2.17709865193825        0.18457422359893
O           -3.78616685146646       -3.22340599086024       -0.64032771721352
C           -3.17807439120913       -4.37345322358753       -0.10192201916653
C           -3.54795910249099       -2.02435251100057        1.46728823377890
C           -3.87117635844977       -0.90212203729872        2.22371169216183
C           -2.59218044959460        1.76181243695250       -1.21359717496821
C           -1.82171892440335        0.45177897957687       -1.05516745717316
C           -0.41273917725000        0.67070973151946       -0.66786659674110
N            0.37711431738497       -0.29243702206518       -0.20954416837665
C            1.77579898079711       -0.05299353862311        0.05231890729742
C            2.66925112972370       -0.52258041817075       -1.11268134035457
C            4.11248801356698       -0.24521954019317       -0.79631177552374
C            4.66167365129708        1.00083617997648       -1.04777062192924
C            5.98375007525103        1.27158273644546       -0.72950319800327
C            6.78371720874862        0.29862880966046       -0.14912430691056
O            8.07623373286855        0.44929085637308        0.20139082484166
C            8.70977799182569        1.68575173004308       -0.03145135132218
C            6.22980564309956       -0.98392776199938        0.11148919693484
O            7.07902307966707       -1.87246926177887        0.66904264839664
C            6.63322963928744       -3.18194533677137        0.92705300074554
C            4.90492539174828       -1.23007370867438       -0.21082831364869
C           -0.11001311203128       -1.64303550669771       -0.08014623611684
C           -3.79069112590467        3.62821068457848        0.18478456877877
C           -3.78754537700203        3.93589301476788        1.69788041209891
C           -3.33119121822798        4.82672317482797       -0.64822869029501
H           -5.88531633359601        0.68585595953143        0.03852562967681
H           -7.21284145216860       -0.51411516614847       -1.51839309973780
H           -6.59176182624517       -0.99176840910026       -3.11644610836348
H           -5.93823857692316        0.45453078058220       -2.31121051578486
H           -3.72524037410779       -4.74622615484591        0.76848811381374
H           -3.20976468980660       -5.11994964714498       -0.89324869063471
H           -2.13427496759096       -4.18920908527381        0.17634055323625
H           -2.91925098720908       -2.78941624370671        1.89701366228448
H           -3.47684411572684       -0.80675835846556        3.22261439919038
H           -3.55937847738315        1.54842726166544       -1.67641139918780
H           -2.05296204248012        2.42405966321630       -1.89885164515351
H           -2.33437856342683       -0.17496055633194       -0.31935595997657
H           -1.85895840098337       -0.09775027682793       -2.00543046447889
H           -1.55306862035752        1.49586855460913        1.55668278187014
H            0.01550483611140        1.65429308366786       -0.76585453277925
H            2.06341288127051       -0.58176854627385        0.96501981081377
H            1.93316647200487        1.01516505178124        0.21226393520780
H            2.37489947360792        0.01289043290948       -2.01690137797698
H            2.52140398607092       -1.59003794657066       -1.28071155918100
H            4.06298704980869        1.77228853231035       -1.50783723416241
H            6.38459986503045        2.24855143415211       -0.94407264174744
H            8.22453054655999        2.49541852290704        0.52229428471006
H            8.72907352909936        1.93191753400398       -1.09742766445238
H            9.72942032801109        1.56339258878571        0.32875691719673
H            7.49132298075270       -3.70551226889884        1.34411392193780
H            5.81572488840386       -3.19239768279508        1.65534441441622
H            6.31351928314673       -3.68564776325219        0.00939587326537
H            4.47719780839343       -2.20217140968527       -0.02087029846724
H           -0.46543245109053       -2.02557358458364       -1.03943692777433
H           -0.94227892034632       -1.67710945969305        0.62740150820238
H            0.68766203565047       -2.28517878867413        0.28398360069238
H           -4.79015703077437        3.33930779138067       -0.15533722159931
H           -4.97336760736128        0.92623001641976        2.28989338718953
H           -4.74116454645287        3.66943309885040        2.16716054499891
H           -3.59850777640096        4.99397126790477        1.89578118457805
H           -2.32379906777456        5.11972691180873       -0.36332872635927
H           -3.33951442528708        4.58127833317302       -1.70677690920880
H           -3.99794597506491        5.67023816772399       -0.48973367052605
H           -2.69395594898165        2.89879143973160        3.20995508777541
