25
 energy: -42.338854791921 xtb: 6.6.1 (8d0f1dd)
C            3.16736607174097        1.12688136490610        0.11428558979749
N            2.30975219130243       -0.01583419932080       -0.01560326376097
C            2.73778474493395       -1.27570521049319       -0.15074657920242
N            1.66278567667297       -2.11189543627623       -0.16492458778253
C            0.54832455041826       -1.36774150920637       -0.04595142674824
C            0.94379698772870       -0.04145206004514        0.05908863357678
C           -0.22139254891057        0.78681930772621        0.40857640510991
O           -0.11825350959228        1.86562518315177        1.04509557368034
N           -1.63969627232031        2.17228214528711       -1.28287120642606
C           -2.48015121247753        2.73388834484240       -0.44552384834814
C           -1.34794145739602       -0.16104865106799        0.45521502030430
O           -2.48891364567324       -0.12141783444886        0.86535094842596
N           -0.75970540502324       -1.55221404407362        0.07553107300487
C           -1.45562843181584       -2.80062471567743        0.13665088660699
H            3.49292512002888        1.23657644437806        1.15607139357865
H            4.05359703221108        1.02131743437757       -0.51161903686225
H            2.62080822508961        2.02359910414170       -0.16796563280455
H            3.75041348466179       -1.56688875378056       -0.30356157132172
H           -2.16190030108327        3.36879418496868        0.36956366638419
H           -2.43901647474578        3.32371021031558       -1.44997617540694
H           -3.31311253196052        2.05856003312452       -0.19460966676499
H           -1.02106849727603       -3.43741708766821        0.90939122628620
H           -1.44193518320536       -3.29960052030637       -0.83293765705432
H           -2.49202448849458       -2.56388324720281        0.40787518032251
H            1.70661979617847       -3.10306315460558       -0.28795222879709
