25
 energy: 57.139608253122 xtb: 6.6.1 (8d0f1dd)
C            3.50326338047223        0.99499198575752        0.11902361303829
N            2.50432773698585       -0.03149009273030        0.01019199284003
C            2.75279548773262       -1.34694239617180       -0.03743439522520
N            1.57620851726866       -2.02753928884970       -0.05621310161591
C            0.56478652826843       -1.09680689081814       -0.00906192388426
C            1.14193315317234        0.16327429813686        0.03338285624012
C            0.28099360976898        1.38956306207693        0.06499775533652
O            0.78757417720200        2.49838242941685        0.13771389371590
N           -1.07424059376251        1.14762965422983        0.02344583144237
C           -3.26645718816925        2.55835215213379       -0.15066916199671
C           -1.65968345027943       -0.02763564076506        0.02255235291924
O           -2.82430574765661       -0.34122260646722        0.04895077864752
N           -0.74740503248839       -1.25778553923423       -0.00771447085744
C           -1.32028007292059       -2.57708349565247       -0.02284964184268
H            3.92705569063990        1.02150246683257        1.12418796191409
H            4.30287754369352        0.78009436646670       -0.59066216485930
H            3.08410327811631        1.97309397818631       -0.08071468610164
H            3.70740706395734       -1.81157757375942       -0.11551101127873
H           -2.66290126692395        3.43018331048711       -0.14657976689611
H           -3.70826685317890        2.25605683077799       -1.06701710699168
H           -3.80451177056003        2.29777047735253        0.72470956013545
H           -0.96136131795751       -3.13478670853233        0.84419493943178
H           -1.02037400441773       -3.09349828900722       -0.93898808280910
H           -2.40897743539557       -2.51310660759002        0.01915217799825
H            1.50240375249458       -3.03147624225315       -0.09537732176002
