25
 energy: 56.795864241853 xtb: 6.6.1 (8d0f1dd)
C            3.58070404243351        0.91143308281043        0.13053630578160
N            2.57022162491903       -0.11168264200030        0.02604415951279
C            2.81547967873888       -1.42122118858870       -0.04869731395961
N            1.63525713325520       -2.09566308010050       -0.05950828531924
C            0.62338069721137       -1.15744198770839       -0.00096533699387
C            1.22201603866574        0.09598742869682        0.04071288813876
C            0.38885165812594        1.33158315601244        0.08315513362039
O            0.90961380538595        2.43255798148507        0.14086642207076
N           -0.94295048856776        1.10558766618140        0.05786353659063
C           -3.62065846693909        2.77178719451923       -0.16338271089862
C           -1.57917868730027       -0.01893136899159        0.03859581869015
O           -2.74408076565990       -0.30921973629499        0.05149063096919
N           -0.67860491242072       -1.32010543742059       -0.00712843103285
C           -1.28967888396905       -2.61748344491661       -0.03277945127275
H            3.97670501191883        0.93247126594672        1.14657112886052
H            4.38110742586421        0.65664082076677       -0.56204875428153
H            3.21651341186337        1.90614460307469       -0.10240878000815
H            3.76884940736626       -1.89557229285419       -0.07487401402777
H           -2.99770445090407        3.62189475528202       -0.15304571873265
H           -3.99714772017905        2.43364448967935       -1.09647466813939
H           -4.10922239390096        2.48438684148235        0.73389104176511
H           -0.96934019345703       -3.19927981522711        0.83484957301316
H           -1.02715016463882       -3.14755322255336       -0.95361113007628
H           -2.37145108218299       -2.48622495108374        0.00839336037983
H            1.54673374117362       -3.10330006608909       -0.09735672707815
