25
 energy: 57.025843145205 xtb: 6.6.1 (8d0f1dd)
C            3.56150019761109        0.93188541784050        0.12881069189710
N            2.55478306280354       -0.09235322079615        0.01875154279758
C            2.80009345065186       -1.40241865964522       -0.05233492194120
N            1.62295907699261       -2.08032423552647       -0.05858666296348
C            0.61212054309633       -1.14667208262411       -0.00434789086444
C            1.20338074690977        0.11169265757424        0.03768296129930
C            0.36352316625209        1.34702086002907        0.07444792327290
O            0.88081531804905        2.45002186645914        0.14146456721506
N           -0.97404017763522        1.11597181799016        0.04739676224418
C           -3.53438194831778        2.71672303835853       -0.16036985973861
C           -1.59982090183092       -0.01739940426980        0.03164239535845
O           -2.76308879525928       -0.31801585266149        0.05147378552571
N           -0.69206814087170       -1.30490266891196       -0.00945456273583
C           -1.29242895311354       -2.60691058259813       -0.03035586588698
H            3.96416789502957        0.95397207442156        1.14244614084920
H            4.36429731792384        0.68869073338093       -0.56628926217070
H            3.18357449469946        1.92354973216313       -0.09395284032781
H            3.75389250206072       -1.87254639390067       -0.07922262948462
H           -2.91461408321061        3.56844090522035       -0.14989794636931
H           -3.92758340473523        2.38792788276840       -1.08751409613239
H           -4.03738306588168        2.43515240416149        0.72742572123894
H           -0.95802793832659       -3.18342910386975        0.83518849196448
H           -1.02493916533286       -3.13482402792604       -0.95098653972724
H           -2.37581380833310       -2.49401939541222        0.01496845595438
H            1.53310183703865       -3.08664180073485       -0.09454610003364
