25
 energy: 55.461507472736 xtb: 6.6.1 (8d0f1dd)
C            3.62353270778289        0.85666322446308        0.11926425705233
N            2.61874156095956       -0.17283221731404        0.04245008454642
C            2.85958202862918       -1.47857104515151       -0.02744739105779
N            1.66911302266534       -2.13661100066364       -0.05598299798540
C            0.65507709556556       -1.20781774115733        0.00051625279070
C            1.27156380358556        0.04225166969416        0.05940893957306
C            0.43902005638936        1.27456491811034        0.09269260208930
O            0.91450151817787        2.39841187902003        0.11240111591155
N           -0.86716856829223        1.01799674571771        0.08301902744077
C           -3.88568799077137        3.05383620916025       -0.18275496444941
C           -1.54634838133884       -0.07359768496329        0.03535981139089
O           -2.72115090414473       -0.30496094697368        0.02445414509600
N           -0.64954026710331       -1.39361309414814       -0.00459425241232
C           -1.27978158365641       -2.67598802310433       -0.03506681597736
H            4.02145475852952        0.89489314051125        1.13324247205014
H            4.43395845473444        0.61954664791488       -0.56994395915786
H            3.18730639895213        1.82650688105847       -0.12623407341324
H            3.82812268635080       -1.94428531974348       -0.06793596309851
H           -3.26658438281353        3.91572276149285       -0.16507375156207
H           -4.13627083475703        2.61616175573237       -1.12288108796209
H           -4.25299706776531        2.66625135034437        0.74029348086366
H           -0.99188534373469       -3.27227590579198        0.83574994673333
H           -1.03625968194964       -3.21369301821463       -0.95580909776611
H           -2.35466536050947       -2.48799254974818       -0.00352742625777
H            1.54005036564267       -3.13263482941117       -0.11510102295636
