25
 energy: -5.593647636226 xtb: 6.6.1 (8d0f1dd)
C            3.26685290756996        1.16206072584273        0.08932104846526
N            2.31740855824361        0.10086548445247        0.03388571983668
C            2.60855525485991       -1.24691963068611        0.02868409965044
N            1.42240153183592       -1.94178224605001       -0.00635737745144
C            0.40952099872855       -1.05320771075184       -0.00742827423669
C            0.92789756702685        0.23573925700126        0.01968548123863
C            0.11447084581185        1.39618725679767        0.00573605206919
O            0.50415351110610        2.56842823696725        0.00699003040121
N           -1.29323921929128        1.07687487107426       -0.02367018943526
C           -2.28590420310861        2.16041236991610       -0.05820418896322
C           -1.81698162950303       -0.18079759818235       -0.03651052514638
O           -3.01351223039825       -0.38970755267992       -0.05751044535091
N           -0.93037566789861       -1.28294537855856       -0.02924485797713
C           -1.45809922102496       -2.63080896487985       -0.05664746122498
H            3.74117453850203        1.20708430207910        1.07395401644134
H            4.03996880287993        1.01834183800604       -0.66954280340569
H            2.73486027872339        2.09220492336725       -0.09003005165201
H            3.58425597989500       -1.66667976198738        0.03697122736647
H           -1.75152416152747        3.10942436035197       -0.03595651622763
H           -2.89738198540480        2.10445548658075       -0.95931147430891
H           -2.95346542218755        2.09661038965670        0.80100374491828
H           -1.14917460992629       -3.18936972396107        0.83116918269955
H           -1.12972304229443       -3.16497381931324       -0.95279524590602
H           -2.54387874983481       -2.54811773944120       -0.06823652057355
H            1.35721378712171       -2.94648422870354       -0.02544474673115
