  25
        -42.15479695
 C          3.4035126324        0.5542313193        0.0392581575
 N          2.3150549836       -0.3834245278       -0.0072222785
 C          2.3987369661       -1.7119897659       -0.0559717316
 N          1.1552249263       -2.2502542740       -0.0595051098
 C          0.2501799040       -1.2252692527       -0.0093382035
 C          0.9867265614       -0.0445458059        0.0227037615
 C          0.2993770736        1.2539681435        0.0465150902
 O          0.8862941325        2.3227383469        0.0266297301
 N         -1.0373906881        1.1198852146        0.0816027327
 C         -2.5928901596        3.7858427453       -0.2110770285
 C         -1.7794392566        0.0231986103        0.0714749387
 O         -2.9853243406        0.0013376186        0.1060579754
 N         -1.0858754169       -1.2619343631        0.0060615353
 C         -1.8518618672       -2.4834516274       -0.0377365245
 H          3.8905478271        0.5214674035        1.0159573539
 H          4.1401434116        0.3216243953       -0.7289418056
 H          3.0043661097        1.5572696628       -0.1188918274
 H          3.3084413710       -2.2774543921       -0.0884914564
 H         -1.5192819964        3.7468814157       -0.2312727031
 H         -3.1289180930        4.4786836647       -0.8311644943
 H         -3.1329896613        3.1055187292        0.4219091553
 H         -1.6445614232       -3.1032670144        0.8367624821
 H         -1.6372477726       -3.0412282612       -0.9507364137
 H         -2.9057900991       -2.2013006699       -0.0305797321
 H          0.9467429450       -3.2376459290       -0.0928931709
