25
 energy: -42.216594671900 gnorm: 0.008006449921 xtb: 6.6.1 (8d0f1dd)
C            3.20435209622073        0.96776935036475        0.06507091877165
N            2.30323301521465       -0.02694913284521        0.10220472432248
C            2.54651027282591       -1.36882136745160        0.15492483039769
N            1.35558278849077       -2.04760776143948        0.09836100957115
C            0.35281005567420       -1.14554756328868        0.01518025410910
C            0.91802766659435        0.14283399945439        0.03077100779537
C            0.09447240262482        1.25345564201816        0.04835729569797
O            2.74051777285755        2.22146754532135       -0.14663405541412
N           -1.25063491444138        1.02638987088590       -0.05272334413328
C           -2.17780032833483        2.14000480126421       -0.08978677008821
C           -1.84703072259045       -0.22734452229494       -0.08589123178228
O           -3.04296515881269       -0.36325346200172       -0.14430353989710
N           -0.98765114879925       -1.34183532078922       -0.04923292696499
C           -1.56431238528852       -2.66928135097215       -0.02687903608286
H            4.24797912845769        0.75487299020216        0.22637180214119
H            0.44846301548873        2.26246630516364        0.12899460836967
H            3.46485956432943        2.85689453357664       -0.19809680823401
H            3.51051162791471       -1.82116636136797        0.22046775586712
H           -1.62801877293857        3.07476827729110       -0.15284640938808
H           -2.83507050551697        2.03591015304387       -0.95479790986590
H           -2.80428079426445        2.13667213973764        0.80254966912025
H           -1.31372781307942       -3.17924203026319        0.90441898955847
H           -1.21125047912280       -3.25365625782039       -0.87811169851736
H           -2.64619695590687       -2.55815669664948       -0.09348375306500
H            1.28205208650306       -3.05240523954004        0.10628623561013
