  25
        -42.16809091
 C          3.6251898179        1.0627021807        0.0126004857
 N          2.4510930386        0.2363754000        0.0106517534
 C          2.4055093924       -1.1249099625        0.0071583926
 N          1.1859966814       -1.6128301818        0.0232081844
 C          0.3893374946       -0.5225274815        0.0384261315
 C          1.1623976427        0.6369648138        0.0313880222
 C          0.2877798672        1.8095152913        0.0257547640
 O          0.4817203118        2.9820717261        0.0284635916
 N         -1.0338006752        1.2107477237        0.0139738288
 C         -2.2356957194        2.0122231561        0.0172153945
 C         -1.0076184422       -0.1399712925        0.0294887770
 O         -2.0575473060       -0.8367669176        0.0306659009
 N         -2.9049668177       -3.1487696663       -0.4624713725
 C         -1.9851617377       -2.4917704057        0.2620585288
 H          4.1139515208        1.0219744376        0.9883381181
 H          4.3297048066        0.7131284893       -0.7420288481
 H          3.3431936694        2.0926360637       -0.1990156570
 H          3.2843054414       -1.7384374730       -0.0096134637
 H         -1.9360433271        3.0576165647       -0.0308209963
 H         -2.8553061931        1.7673631131       -0.8450783346
 H         -2.8068010876        1.8371536245        0.9291323013
 H         -2.1792890269       -2.4956960687        1.3343440136
 H         -2.7403521327       -3.2845232234       -1.4491156854
 H         -3.8769939719       -3.0558945836       -0.2118854196
 H         -0.9497335150       -2.7118747554        0.0056017165
