25
 energy: -42.201197833714 gnorm: 0.007067189826 xtb: 6.6.1 (8d0f1dd)
C            4.15483892123331        1.45295160743546       -0.48018339148341
N            3.30685565468650        0.34864791695793       -0.52577570692473
C            2.76423511940253       -0.29390941025580        0.43231417237002
N            2.04606440664832       -1.37991632101971        0.28206953009048
C           -0.28989991931525       -0.99323137803337        0.07541057910616
C            0.85407050592387       -1.80923000070655        0.10569112554183
C           -0.30630349611653        0.45072646403798        0.28254254737595
O            0.61409425463701        1.20988647023819        0.51944045514924
N           -1.63805646915724        0.81166456850186        0.16907875014821
C           -2.15081239976601        2.14716904306768        0.30039773173254
C           -2.43379423810036       -0.29301563871821       -0.08077458225807
O           -3.62503219906317       -0.31708373647337       -0.22699867448171
N           -1.57786125391085       -1.39537900075119       -0.13019353349356
C           -2.05146411165362       -2.72618108345807       -0.37407572026381
H            4.54609333859789        1.66726415366979        0.52404213478729
H            4.98947035851395        1.28174654269930       -1.16753566122349
H            3.61002129616005        2.33355209681282       -0.83998730986010
H            3.01603904357879       -0.06235791229974        1.48291644603745
H           -1.31340264569894        2.81700583572952        0.49219502291531
H           -2.66608671677533        2.44215376822028       -0.61642621597378
H           -2.86550964080695        2.19523992283267        1.12507799347546
H           -1.81431964337845       -3.38209277868220        0.46653702539198
H           -1.60699008552356       -3.13563216645385       -1.28384303823816
H           -3.13437459907597       -2.67459489574807       -0.49456094830479
H            0.73255603302759       -2.87714552599711       -0.00618711371564
