72
 energy: -99.305951657275 gnorm: 0.004082582058 xtb: 6.6.1 (8d0f1dd)
N           -0.49709355010542        1.50527869940248        4.54047475907632
C           -0.23557198874571        0.92770758361663        3.49684736965474
C           -3.28158203221713        1.75094914449741       -0.44436816121319
C           -3.69925644616685        0.46138119537235       -0.07217449943912
C           -4.30298612563749       -0.41993234456314       -1.01598396257074
C           -4.66698099887816       -1.70491686909980       -0.69230745524263
O           -5.26258662278397       -2.58680414161957       -1.52734615248844
C           -5.66199572494859       -2.15980417623856       -2.80721533408885
C           -4.41780410599695       -2.20835780092878        0.61858699045799
O           -4.77969515055433       -3.48604168103992        0.82798263024164
C           -4.61578812099407       -4.05050787420472        2.10788124303946
C           -3.84042675215013       -1.35552091731654        1.55477318701187
C           -3.50136021386695       -0.06105337802542        1.22949404282762
C           -3.06450627637864        2.07312971546398       -1.88981352879784
C           -1.98430324042556        1.17931297858520       -2.57956091451343
C           -0.63905040812426        1.38230955167043       -2.01395182017778
N           -0.00545822749832        0.52931046222760       -1.21863169660329
C            1.34343521131935        0.79531358687069       -0.77880326763412
C            2.38092444988276        0.10118682469654       -1.68433074425678
C            3.76354959722352        0.25851941234886       -1.11693800000737
C            4.47830756644650        1.42989788314572       -1.30420495563942
C            5.74382624977003        1.58366361060910       -0.75903338545063
C            6.32217048080523        0.56531998798457       -0.01553712518330
O            7.54053945642748        0.60492992273959        0.55872319652079
C            8.33321816895694        1.75962888731593        0.40701862482716
C            5.59978624084093       -0.64319682128865        0.17585263992680
O            6.24016059819862       -1.58846039772399        0.89616712378875
C            5.62852574353150       -2.84156818269519        1.08405751655268
C            4.33242315949574       -0.77009175797659       -0.36962826273425
C           -0.55403925716313       -0.76534515354555       -0.89030075738933
C           -3.01567691312572        2.87847439116493        0.51797016939026
C           -4.02589708164630        2.98400485153876        1.66797579163781
C           -1.57231815996017        2.87494149936892        1.05110705916278
H           -4.54550882233310       -0.04351782182474       -1.99483843454978
H           -6.35648687033379       -1.31599222123664       -2.75042810898164
H           -6.16936067141261       -3.01266403071463       -3.25382984858189
H           -4.80264515026638       -1.88654500601008       -3.42851221324831
H           -5.20062623957274       -3.51440260631358        2.86145704210731
H           -4.98314550532412       -5.07194869378009        2.02628625500091
H           -3.56283384211233       -4.06803958292660        2.40763902240780
H           -3.65351368455334       -1.70652589532600        2.55729388945754
H           -3.02750269401260        0.54419033924264        1.98085808407404
H           -3.98979493974380        1.94681854135000       -2.45797774089079
H           -2.75940013971177        3.11448742025468       -1.99783707710191
H           -2.28945814310682        0.13736250402243       -2.51567362115626
H           -1.96312577543053        1.47974787820702       -3.63116232490187
H           -0.36377350108352       -0.12517520927815        3.33017953591587
H           -0.13668696260774        2.31515625566697       -2.21969138936983
H            1.45769534108802        0.43602360662193        0.24735551551384
H            1.52585839162975        1.87148484347521       -0.78332292027982
H            2.32920199815185        0.54514723010653       -2.68004929275820
H            2.13512848463362       -0.95822844603590       -1.76798801444626
H            4.05714147999090        2.23252611781177       -1.89003825529915
H            6.27779185977202        2.50445556563706       -0.92698178630992
H            7.84983848914840        2.63757628397332        0.84680261996048
H            8.56000337226553        1.95532211105191       -0.64534787868773
H            9.25759460933773        1.55075876751674        0.94226829387907
H            6.34450922839956       -3.43412503555877        1.65014118626790
H            4.69981322009594       -2.75430536084989        1.65747325620321
H            5.42463192556055       -3.33628536679673        0.12929188982850
H            3.77776391159784       -1.68501951385183       -0.23072159933565
H           -0.69632416183408       -1.37582937401781       -1.78444647474545
H           -1.51500826689160       -0.65514848278587       -0.38598424182874
H            0.12971051741173       -1.28528490568909       -0.22411713961302
H           -3.11990255009365        3.80032263533596       -0.06788975138987
H           -3.73629728478943        2.39112364818250        2.53029781069985
H           -5.01063583602514        2.65967499756263        1.34308193218504
H           -4.09843563915706        4.01971912187259        1.99239119062936
H           -1.36657098019147        1.99721920050311        1.66159169806045
H           -0.86535921030423        2.89283576253266        0.22761716558537
H           -1.41306568790863        3.76038724697543        1.66181683160785
H           -0.37719419901817        2.49717830549201        4.69947741611471
