72
 energy: -99.337083571821 gnorm: 0.009456075421 xtb: 6.6.1 (8d0f1dd)
N           -1.87120150883804        2.81309519865758        2.22092046045269
C           -1.83875725819779        2.10285601739701        1.19330715212136
C           -2.99883661436022        1.89280403904813        0.25873555728355
C           -3.49185419579908        0.45708843238308        0.38459727259069
C           -4.45610215904084       -0.01382223492840       -0.55427870293496
C           -4.90084786924031       -1.32072913492381       -0.53860799114342
O           -5.80028089949357       -1.84297538323454       -1.40370544634153
C           -6.45384464870223       -0.98471104696829       -2.31355418147965
C           -4.39606135518226       -2.23064783184045        0.42218433124189
O           -4.72134291198014       -3.50824673737613        0.29908970526537
C           -4.41524972925197       -4.45465261655191        1.14237684907693
C           -3.53140455155099       -1.75564275251201        1.54679922137631
C           -3.05113049671478       -0.35568398237305        1.36885030248248
C           -2.44968995915890        2.13984396546351       -1.16998584824905
C           -1.52952438429916        1.02680857239974       -1.70383463429848
C           -0.18915524481446        1.01629507465714       -1.07468583903628
N            0.47126168283370       -0.07115925551664       -0.68055449661841
C            1.85110164378205        0.02153161007803       -0.26610949706468
C            2.82291395525936       -0.39739148662277       -1.38623697760686
C            4.24069114556931       -0.18371721336432       -0.93430926521031
C            4.86796919970748        1.03443248183783       -1.13488999314119
C            6.16469376426931        1.24715891481315       -0.69231887973027
C            6.85913221235379        0.24369488930810       -0.03326552924008
O            8.11831609669406        0.33691685043578        0.43644906499256
C            8.83650185306628        1.53317442057004        0.24108220002669
C            6.22192155992817       -1.00868058716489        0.18215069409832
O            6.96895061920016       -1.92755906889135        0.82896709499550
C            6.43526920164866       -3.20862788000770        1.06102609748979
C            4.92537140624602       -1.19794705124617       -0.26829649956400
C           -0.12841226765231       -1.38211106925431       -0.72193310180034
C           -4.19617728273872        2.84675763679597        0.54166747905909
C           -4.84005330617802        2.55138240033202        1.89447526679381
C           -3.81433462527305        4.32231270426873        0.46387132142718
H           -4.84312605721361        0.67007506156750       -1.28790775325708
H           -6.97704518981283       -0.17644439941365       -1.79408757756280
H           -7.17990343409655       -1.60768763888740       -2.83215967054002
H           -5.75542076190574       -0.56240589174878       -3.04273124895841
H           -3.94724497073155       -4.25872051708834        2.09794566080844
H           -4.66687961251198       -5.45729668631474        0.82817611508405
H           -2.66178089782161       -2.42773307616065        1.65571382584624
H           -4.07801362218955       -1.82637910165263        2.50224083403041
H           -2.36013970910284       -0.00395040228362        2.11817221387061
H           -3.28959822861675        2.24081179621298       -1.85640325455731
H           -1.90396793316852        3.08392980988499       -1.17735169082271
H           -2.02803842339635        0.06355830279798       -1.60959943725098
H           -1.38840202381957        1.22306602897878       -2.77510494903679
H           -0.93218722988514        1.57619761331365        0.83679164421409
H            0.36424643197335        1.94332065980898       -1.06590690468534
H            2.00728007735252       -0.61771785640469        0.60706534352251
H            2.07151250281880        1.05124221104995        0.02265122406410
H            2.61911745449776        0.20833137688367       -2.27079860341962
H            2.66062977439327       -1.44565267390112       -1.63987049504610
H            4.35241611730732        1.82929881411367       -1.65230333764297
H            6.62888211220129        2.20311463972903       -0.87082829728588
H            8.35422245118756        2.37723993138519        0.74364648652366
H            8.95511369005763        1.76001698112204       -0.82269872190831
H            9.81537390321481        1.36141694399968        0.68455623080598
H            7.22017387802845       -3.76398333392257        1.57077145188996
H            5.54940814698989       -3.16473126835811        1.70308590623648
H            6.18429072492220       -3.71521049956865        0.12380390722322
H            4.43624962845256       -2.14766049600436       -0.11737308300695
H           -0.28789181566365       -1.71351788194287       -1.75049407389129
H           -1.09026301869027       -1.37253641925123       -0.20423104714338
H            0.52852247233796       -2.09302181806754       -0.22720335972675
H           -4.94354298743558        2.65167006090336       -0.23556873705753
H           -4.12915516093864        2.73722500739015        2.69260506296417
H           -5.17672395685743        1.51943140130625        1.95311188792040
H           -5.70025521218132        3.19979456963007        2.03710284700454
H           -3.05614444906408        4.55471098612046        1.20495889413787
H           -3.44840630760296        4.59478043579650       -0.52244612639652
H           -4.69113741172239        4.92924560233989        0.67296429234965
H           -1.01548842639504        2.89846337345365        2.76098619598607
