25
 energy: -42.129987429332 gnorm: 0.006513316380 xtb: 6.6.1 (8d0f1dd)
C            3.30809386173186        0.98248994735875       -0.13467822248663
N            2.41369088406314       -0.00309912498442       -0.08795387402426
C            2.63205890597238       -1.32862529070490       -0.28783715493243
N            1.45712531677671       -1.99410274021416       -0.22436741286443
C            0.46335827062474       -1.08407299158035        0.02791645070422
C            1.05948596674886        0.14777212930001        0.14170426754365
C            0.28795199582541        1.42990575529746        0.30349792487064
O            0.69048056401818        2.40678149410844       -0.44656730476808
N           -1.15854583930395        1.06612963411538        0.11608745053611
C           -2.02884853900696        2.20820766687350       -0.01836711732041
C           -1.73085675402624       -0.16535588120567        0.12317560871490
O           -2.92325054577474       -0.33854837070864        0.10619918796596
N           -0.86566960701047       -1.29424979554045        0.11652072312243
C           -1.44704864008742       -2.61664797658742        0.06742785440958
H            0.33373146159200        1.74970427745319        1.39342680591641
H            4.34092511304735        0.75447888180450       -0.31673797092658
H            2.94836708050606        1.99341559507918       -0.05227137263871
H            3.58837240761684       -1.77378705767805       -0.47237837331688
H           -1.47815885124669        2.98248189774817       -0.55663696543977
H           -2.92996587981983        1.92186285047224       -0.55749795036879
H           -2.31712564968332        2.59692987132056        0.96257769508251
H           -1.03953841914197       -3.24054299378249        0.86326211541948
H           -1.27187620949277       -3.08618726601935       -0.90268335086930
H           -2.52181099989240       -2.50561675783938        0.21053368316130
H            1.34948562006253       -2.99108521248436       -0.34318107959158
