25
 energy: -42.170029525018 gnorm: 0.009181192464 xtb: 6.6.1 (8d0f1dd)
C            2.94674085279979        1.04928102680679        0.71860422563525
N            2.27421970653133        0.00492837355232       -0.05072265358841
C            2.94139890507761       -0.87862976992151       -0.66114544320276
N            3.46725675711271       -1.85337396117999       -1.07292470697011
C            0.19518704860298       -1.22869828470741        0.16728132233408
C            0.84712794970308       -0.05229727976312       -0.03519046906274
C            0.10197663735456        1.18802105835979       -0.24968831267848
O            0.61380097415046        2.26268715551288       -0.47458844915491
N           -1.27039863180831        1.02040574975453       -0.17473112128113
C           -2.11601057790802        2.19173629552626       -0.35138129172121
C           -1.94693456100190       -0.16594602700075        0.03321451530682
O           -3.14483820172872       -0.22774270226153        0.06760930530094
N           -1.14334554269943       -1.30223821008231        0.20770515135245
C           -1.80241570884661       -2.57398939011221        0.42669434833440
H            2.70234628928394        0.92974924968631        1.77329524930681
H            4.02194316048192        0.97795831754678        0.58048261704595
H            2.59189311284652        2.02238606360819        0.37437902819682
H            4.05935728498161       -2.15625421306183       -1.82654597375787
H           -1.47509631683086        3.06280077344823       -0.46126746705497
H           -2.73973394236771        2.06801844618577       -1.23638109459535
H           -2.76791753344010        2.30294194817730        0.51454576464892
H           -1.43774289778551       -3.03489768132025        1.34401760554402
H           -1.62198902776593       -3.24455417296986       -0.41368229195375
H           -2.87197453532327       -2.38963284326388        0.51332308038478
H            0.73558031267699       -2.15442138091949        0.31826867953204
