  72
        -99.40876693
 N         -1.3003731854        1.8213374902        2.2245106675
 C         -1.3724149965        1.5902155890        0.9844611261
 C         -2.6115310054        1.7356500353        0.1435583273
 C         -3.4255599353        0.4444911266        0.2066874165
 C         -4.4098583075        0.2054436917       -0.7529819368
 C         -5.1641595974       -0.9555071731       -0.7420966171
 O         -6.1452768596       -1.2550189460       -1.6197774478
 C         -6.5377126980       -0.2906455363       -2.5674759722
 C         -4.9236197122       -1.9388522132        0.2529951965
 O         -5.6768588035       -3.0555368714        0.1630318052
 C         -5.5359014165       -4.0530721507        1.1464206217
 C         -3.9735868993       -1.6789999425        1.2247737542
 C         -3.2416044071       -0.4965982849        1.2061623002
 C         -1.9986606732        1.8954566985       -1.2653134313
 C         -0.8185818357        0.9220353145       -1.2842439361
 C         -0.2087505237        1.1089693388        0.1007075440
 N          0.4419939062       -0.0821033594        0.7614175564
 C          1.9322748222       -0.0685939816        0.6927671931
 C          2.5145628079       -0.1446081575       -0.7189787712
 C          4.0149774637       -0.0138020151       -0.6108228966
 C          4.6106465912        1.2330638763       -0.5874843379
 C          5.9856176770        1.3566714482       -0.4454816128
 C          6.7859976308        0.2323249154       -0.3207216858
 O          8.1260489073        0.2349881512       -0.1775912477
 C          8.8096888624        1.4671730768       -0.1736530345
 C          6.1809535179       -1.0526919625       -0.3439968094
 O          7.0337181929       -2.0921923981       -0.2203402830
 C          6.5288123078       -3.4041132419       -0.2793996865
 C          4.8070113644       -1.1535255741       -0.4827968402
 C         -0.1124391679       -1.3923120716        0.3729123408
 C         -3.5169869522        2.9335481218        0.5409466307
 C         -4.2809781059        2.6505847962        1.8319384680
 C         -2.7406755935        4.2393098402        0.6961847020
 H         -4.6118057317        0.9527990780       -1.5020525612
 H         -6.8687064408        0.6340410417       -2.0847310537
 H         -7.3731210542       -0.7343017496       -3.1053977477
 H         -5.7322053339       -0.0678820983       -3.2748559693
 H         -5.7663643982       -3.6695257595        2.1448914881
 H         -6.2547353829       -4.8263935957        0.8832713889
 H         -4.5277007696       -4.4808640956        1.1427014743
 H         -3.8002201021       -2.3849954368        2.0209054026
 H         -2.5681939832       -0.2985275616        2.0257585319
 H         -2.7053225496        1.6770047555       -2.0598939800
 H         -1.6412768786        2.9152981234       -1.3994567650
 H         -1.2066195226       -0.0843890618       -1.4232800888
 H         -0.1192394895        1.1409178289       -2.0897456624
 H          0.2017675018        0.0337606776        1.7570028014
 H          0.5491077113        1.9000922606        0.0777775684
 H          2.3049322861       -0.9119966647        1.2791946414
 H          2.2856559921        0.8508415016        1.1663547972
 H          2.1242819439        0.6669717688       -1.3329941072
 H          2.2643329825       -1.0938601318       -1.1919090839
 H          4.0119345792        2.1254945925       -0.6926477424
 H          6.4230646546        2.3410782524       -0.4370572932
 H          8.4991393819        2.0955404790        0.6668637119
 H          8.6612157517        2.0105980902       -1.1116604384
 H          9.8628919379        1.2160461585       -0.0653657354
 H          7.3960591051       -4.0552629665       -0.1903141162
 H          5.8396430390       -3.6081444714        0.5469717008
 H          6.0270697886       -3.5994065298       -1.2324738670
 H          4.3371183331       -2.1243237540       -0.5084451758
 H          0.1622535092       -1.6388370194       -0.6494533722
 H         -1.2005809786       -1.3756759592        0.4664340976
 H          0.2867727026       -2.1591051077        1.0351781744
 H         -4.2383005864        3.0545634721       -0.2745508208
 H         -3.5801575042        2.4521794534        2.6367037650
 H         -4.9422649432        1.7957138565        1.7211095139
 H         -4.8821307961        3.5158142243        2.0974188143
 H         -2.0396088078        4.1658360881        1.5227479072
 H         -2.1991416849        4.5111292310       -0.2064558228
 H         -3.4373779382        5.0438929699        0.9146262652
 H         -0.3902004018        1.7391506360        2.6738862380
