25
 energy: 0.920302543225 xtb: 6.6.1 (8d0f1dd)
C            3.31795356477661        1.13619839809056        0.09523803122464
N            2.35031679713753        0.09182832755559        0.02835721244418
C            2.62984918080063       -1.26717293327539        0.01612675864694
N            1.43301149709521       -1.94682318682026       -0.03304520309203
C            0.43442518720352       -1.03939039091256       -0.00736783220330
C            0.95110723516322        0.25020102655597        0.03164335546064
C            0.12296828442107        1.41800890371192        0.03484330682771
O            0.53580106234985        2.57970918679611        0.05700568386564
N           -1.33728819912833        1.13501375626479       -0.01294325625784
C           -2.42023203788823        2.18514678730544       -0.08046786798868
C           -1.81091671988593       -0.14631465084278       -0.01394776830789
O           -2.99936592595747       -0.40062342019131       -0.02272875675284
N           -0.90952808671912       -1.24801705218584       -0.01360191180671
C           -1.43192294009399       -2.60533781409914       -0.04945461802219
H            3.78775369982698        1.17869547456129        1.08248233466105
H            4.09631674722566        0.97916310714966       -0.65733364932831
H            2.80622469889705        2.07480157573872       -0.08616534048646
H            3.59919175130935       -1.70979645190320        0.01737975740082
H           -1.93692368020602        3.16361405283249       -0.06257759854254
H           -3.03957327547713        2.09715306924691       -0.97725190843677
H           -3.10566315565161        2.11537313359129        0.76628538017645
H           -1.11164410205691       -3.17279021590995        0.83008028011458
H           -1.10487357023423       -3.13805829145040       -0.94866812119470
H           -2.51812846668258       -2.53379859287507       -0.05412347375609
H            1.34869890568564       -2.95190810532825       -0.06632455819165
