25
 energy: 54.680178224874 xtb: 6.6.1 (8d0f1dd)
C            3.59586501295716        0.88997761032963        0.11132715908650
N            2.60770942751904       -0.15368356787384        0.03468843460939
C            2.84252914103500       -1.45088773657165       -0.02647116906991
N            1.67257235635265       -2.13050857222969       -0.04944818747019
C            0.65142605109739       -1.21264018306941        0.00330351610825
C            1.25431021475055        0.04133762226684        0.05709244862212
C            0.42376364054455        1.27503334364780        0.08003042330026
O            0.94094494437930        2.38133374212309        0.11176672373607
N           -0.90230526692663        1.03912231994485        0.06187902646095
C           -3.82131880824692        3.07368571237552       -0.17064550232360
C           -1.52641946938470       -0.10113445302444        0.03456189362712
O           -2.70278054908734       -0.33452507921043        0.01938355238690
N           -0.65173432347998       -1.40292018877211       -0.00020911767047
C           -1.28715947633948       -2.69427882583763       -0.03714619419979
H            4.00744028262781        0.95218484989165        1.11937880360087
H            4.40626755909422        0.70759482109553       -0.59463077397873
H            3.09627983541464        1.83553256343926       -0.11262245370385
H            3.80654779852258       -1.90345577585466       -0.06168353720140
H           -3.17970648124117        3.92255758284019       -0.15479675891072
H           -4.12332345617688        2.66876032749452       -1.10853900546376
H           -4.23071059042415        2.70615690067424        0.74290032591090
H           -1.01149850025457       -3.29495555684386        0.83375532278743
H           -1.04647047471444       -3.23626232636744       -0.95663950663315
H           -2.36205621693319       -2.50654124582738       -0.01009817738813
H            1.57471725075295       -3.13110661502283       -0.09536914039189
