  25
        -42.13711932
 C          3.3721795592        0.6234845517        0.0105644160
 N          2.2698354147       -0.2988724928        0.0021510269
 C          2.3465553747       -1.6340843597       -0.0034370248
 N          1.1005634274       -2.1667265901       -0.0104802207
 C          0.2001472782       -1.1321773000       -0.0083736367
 C          0.9386932260        0.0486770900       -0.0022263491
 C          0.3173971898        1.3463657216       -0.0015564788
 O          0.8920050079        2.4175353958        0.0004516462
 N         -1.0814296485        1.2430502479       -0.0043696151
 C         -1.8408177377        2.4856903072       -0.0159072179
 C         -1.8470725357        0.1062468614        0.0088982237
 O         -3.0481190000        0.1231898636        0.0281453121
 N         -1.1586883038       -1.1670376299       -0.0028277592
 C         -1.9101756902       -2.2843641183       -0.0067688460
 H          4.0119147587        0.4426054112        0.8748114792
 H          3.9686835752        0.5123612200       -0.8959394104
 H          2.9778185316        1.6384946267        0.0572822601
 H          3.2539954854       -2.2030522475       -0.0037195549
 H         -1.1334108223        3.3122330666       -0.0204975958
 H         -2.4740133126        2.5239342253       -0.9025609171
 H         -2.4803110589        2.5389229467        0.8652726804
 H         -1.4486437649       -3.2488126627       -0.0344795170
 H         -2.9913479737       -2.1653028949        0.0056681445
 H         -4.8518626481       -2.0753329139        0.0513993374
 H          0.8945643420       -3.1543390865       -0.0112986570
