72
 energy: -99.287880831551 gnorm: 0.002558942492 xtb: 6.6.1 (8d0f1dd)
N           -1.80744683757687        2.88599227132048        1.97158553401083
C           -1.93637512044141        2.59344113397076        0.74871823200963
C           -3.15701500375307        2.85766667091882        0.00241054476073
C           -4.76262664549752        0.27966637793453        1.33212039451744
C           -5.34724979786948       -0.13975736922774        0.15193943793737
C           -5.30400848588839       -1.48500538221707       -0.19345486178799
O           -5.83437443494195       -2.02180207903677       -1.31081468651200
C           -6.55274167090875       -1.19790625291150       -2.19956902559187
C           -4.65810365255235       -2.40587464554244        0.67793438401271
O           -4.67923840358937       -3.69090120501393        0.26819906805520
C           -4.16460070002310       -4.69075942087866        1.11736031891225
C           -4.07235366974086       -1.94354285861784        1.84741564662951
C           -4.12195715234428       -0.59349122809031        2.17822983246819
C           -3.21521564212662        2.51989318899422       -1.28952166118428
C           -0.60768464849868        0.85815462228427       -2.95751197668845
C            0.40909482810588        0.98133198298929       -2.09522090977648
N            0.73525735492232        0.12666344191325       -1.08267716877528
C            2.06248533038395        0.19242193631564       -0.52886126513156
C            3.10118722499667       -0.55450640414171       -1.39528186979297
C            4.49086081570465       -0.31063793066668       -0.88755864365557
C            5.11509162264590        0.90804954517614       -1.11989970828227
C            6.38858047663117        1.15943040609353       -0.63872179459873
C            7.07366043431107        0.19239940966946        0.08567382550899
O            8.31195520161313        0.32462076386241        0.59449260397661
C            9.02100680117017        1.52270024717416        0.37680749164933
C            6.44590031058588       -1.06213443761680        0.32556885162882
O            7.18287637618380       -1.94677210671951        1.02442693007099
C            6.66825485037871       -3.23447893130109        1.26834267943095
C            5.16516076339194       -1.28575890407254       -0.15903847701641
C           -0.00272923851082       -1.09922800125027       -0.91271774378177
C           -4.32667538113046        3.53569778283347        0.68338614191469
C           -4.72571678192543        2.85986881646155        1.94961280676176
C           -3.95503371424458        4.99769425630751        1.01204582747819
H           -5.83955949285485        0.57308538864606       -0.48905928357008
H           -7.41239172521409       -0.73167296621797       -1.70825304488033
H           -6.90430894562466       -1.86031683532204       -2.98899394629571
H           -5.91311832100678       -0.42267646833468       -2.63489916618110
H           -4.67797469404191       -4.69687085707842        2.08390795878065
H           -4.35004920986181       -5.63369666847231        0.60459210164899
H           -3.08741604568021       -4.57054104943074        1.27575746371668
H           -3.57715428037501       -2.62689012219792        2.51819366404073
H           -3.66833537411005       -0.24815311929678        3.09296725124253
H           -4.08897427452559        2.71151768410728       -1.88890312650841
H           -2.38267653917174        2.05185850644345       -1.79074914022132
H           -1.25642109687185        0.00097042942711       -2.98345945693325
H           -0.78110330323556        1.62114592607397       -3.69362685713395
H           -1.14296970765111        2.12620375351331        0.14843751643821
H            1.04597164957364        1.85570415842746       -2.14535053598942
H            2.05117742952306       -0.23643304172685        0.47697305330416
H            2.35895555237786        1.24163658082407       -0.44817659567569
H            3.01315618533289       -0.18997719351263       -2.42159490387287
H            2.87631090322826       -1.62152629444411       -1.38835940478337
H            4.61017496450012        1.67045601508234       -1.69342903452373
H            6.84615814694453        2.11456159718226       -0.83811741905832
H            8.51386463571351        2.37690331546162        0.83595606486534
H            9.16565072802111        1.71382089330749       -0.69076317811707
H            9.98946520077775        1.37995641075880        0.85251940737105
H            7.44695546601015       -3.76140961560250        1.81649149024331
H            5.76035907952755       -3.19517911717328        1.87827405056646
H            6.45991873619926       -3.76554834177951        0.33448868080538
H            4.68214743113625       -2.23418765631671        0.01633938394612
H            0.17407986431598       -1.80425124680678       -1.73024604349757
H           -1.06975885817396       -0.88104575646727       -0.86956120340610
H            0.29242877301679       -1.56694461904958        0.02332530395042
H           -5.16853668359544        3.54862221228622       -0.01705976366764
H           -3.95847483121859        2.81838880127370        2.70842883535357
H           -4.80309860115359        1.40511951977766        1.61263679273898
H           -5.72866808740015        3.04671204863006        2.30347806458776
H           -3.11576455013697        5.01900104044889        1.70136058276423
H           -3.68118522656951        5.51855394734470        0.09800132061352
H           -4.80156419416550        5.50674899035656        1.46557244717337
H           -0.91098051597968        2.67735757546742        2.39874475361692
