25
 energy: 142.854877641924 xtb: 6.6.1 (8d0f1dd)
C            3.36752129911830        1.29484037770453        0.10919984898869
N            2.43695019267472        0.18119624198184        0.09637471747960
C            2.74818127112670       -1.13194248839167        0.15563689749083
N            1.61555677555175       -1.86139531693830        0.12111059579328
C            0.52585383357889       -1.02681829926643        0.04068894316289
C            1.04182060885537        0.28320461215502        0.01212097678725
C            0.16107903647747        1.38684281923522       -0.03164009471456
O            0.51345008027518        2.57281414874455       -0.05985871050647
N           -1.22642028533943        0.97068617146952       -0.06019078049923
C           -2.10646043202999        2.13785251502506       -0.13126680083439
C           -1.76070081554803       -0.27515240397382       -0.08507634120927
O           -3.74023741671387       -2.25389558473679        0.08331503843935
N           -0.80305057274863       -1.31119353559712       -0.10546105675601
C           -1.34398214123562       -2.49412423578740       -0.40375127486557
H            3.92706310786998        1.30715858143951        1.04730048866349
H            4.09722144958220        1.22224517262509       -0.70240803384376
H            2.83918756931877        2.24546937912435        0.00845405600792
H            3.75173045415512       -1.50881669980249        0.23777142280230
H           -1.47194856676684        3.02283760798950       -0.09438850603907
H           -2.63877355572417        2.14430443962795       -1.09041750552723
H           -2.82341131490595        2.14340781397247        0.68325005051710
H           -0.74230301191269       -3.33460796475158       -0.61788637924856
H           -2.46941793116714       -2.35734456698325       -0.50136903573353
H           -4.46163077665077       -2.95682984781402        0.29519790416992
H            1.61786227600902       -2.87109091023411        0.19421863356011
