25
 energy: 62.687367945617 xtb: 6.6.1 (8d0f1dd)
C            3.31880279461236        1.26623553239999        0.11660011831605
N            2.36631948745283        0.19318906950138        0.04946552560286
C            2.72461370059956       -1.14163355693581        0.09165329480284
N            1.57604689534943       -1.89113930485586        0.08012910468387
C            0.46428361336644       -1.12364624853500        0.05527240172539
C            0.95063992557936        0.20959454045363        0.02892627787314
C            0.06481335900114        1.29256594674861       -0.05435228559595
O            0.42351167052610        2.47962493381452       -0.13242955392297
N           -1.35494517828145        0.89097478128572       -0.06443893541557
C           -2.15792399975310        2.10980992675998       -0.10660124366597
C           -1.85234207172912       -0.39983471631225        0.06687439010864
O           -2.99217183954524       -0.88798615470670        0.07525444998557
N           -0.90748248408154       -1.44272124299427        0.05560825102984
C           -1.73748044782729       -2.73638724417969       -0.07461713499866
H            3.84477704300359        1.29533528517190        1.08265941346094
H            4.08685728442624        1.15914707176829       -0.66163849617336
H            2.80480887928454        2.21490792082830       -0.02107302245054
H            3.71706571858014       -1.54910928162145        0.17193007235213
H           -1.46377592445632        2.95749226571877       -0.04228600083123
H           -2.70688600477183        2.21708385755710       -1.03839682739006
H           -2.82439664216222        2.17853874434538        0.74712981355126
H           -0.98640859211817       -3.50496347310595        0.06577459066468
H           -2.14911712902717       -2.82732818367547       -1.06864893005854
H           -3.05428015094581       -3.06928482212807        0.51649153521445
H            1.59491740498580       -2.89401410545284        0.07497613993703
