25
 energy: 101.391282871763 xtb: 6.6.1 (8d0f1dd)
C            3.33037843689483        1.27876239363614        0.12299126187849
N            2.37751754189021        0.20170267839999        0.05681025380212
C            2.73039392610226       -1.11640925101454        0.10486292881919
N            1.60238573084508       -1.88247388510143        0.08758864188249
C            0.48545955099771       -1.11451839164262        0.04573076989617
C            0.96617201495026        0.21643032629787        0.02620482322627
C            0.05062060671894        1.28979356820370       -0.04583026249438
O            0.42220318749197        2.47061229871139       -0.11121455869831
N           -1.34604904351056        0.88950468025636       -0.05429504593665
C           -2.15084341884806        2.11054853382545       -0.11259891269703
C           -1.83993557794040       -0.42538820000029        0.05423044174410
O           -2.96270872922298       -0.97052997262159        0.05550197935122
N           -0.85839730066728       -1.44362076537236        0.01437929947008
C           -1.60883096757402       -2.69523017693849       -0.14637401396638
H            3.86038708822270        1.30240206477552        1.08539311216399
H            4.09557063499617        1.17362564446145       -0.65708760472797
H            2.81951434357077        2.23012294421964       -0.00964147624888
H            3.72489087817081       -1.51962450025440        0.18075752068499
H           -1.44268523052470        2.94581645265630       -0.03736548482375
H           -2.68873969065332        2.23644845658957       -1.04724939545816
H           -2.82397130280483        2.18207467021230        0.73450816232584
H           -0.94176024602792       -3.52774738396822       -0.05293640215204
H           -2.24520109964772       -2.76291639769496       -1.00553059121521
H           -3.40421939971563       -3.20641430748198        0.54271721124809
H            1.62399469291186       -2.88632322324614        0.08070900492580
