25
 energy: 127.350757579854 xtb: 6.6.1 (8d0f1dd)
C            3.42841670994499        1.30216533472792        0.12389695589658
N            2.49339201623433        0.20987911049324        0.07419856426956
C            2.77501746619356       -1.09134913367556        0.10949340491916
N            1.64896110810407       -1.81198617274883        0.04881296373777
C            0.58170641716786       -0.94954751273918       -0.02367551441275
C            1.11187056621171        0.34891975368327       -0.00464901981157
C            0.28453513315176        1.49996516621653       -0.04734783636343
O            0.65877119297352        2.67590464314021       -0.04989506116011
N           -1.07313785102248        1.12927469578722       -0.08321288552377
C           -2.02979862833653        2.22997434517037       -0.10231208979071
C           -1.60315566304668       -0.08503974438507       -0.10509695330436
O           -4.03905986205428       -3.23960186832662       -0.01314353855621
N           -0.75424378352727       -1.19238919375297       -0.08920476243600
C           -1.27602167345242       -2.42462099518642       -0.14349476943739
H            3.93069459343273        1.33252724948897        1.09341519801984
H            4.17705621447541        1.19423748476953       -0.66055897192436
H            2.87491042083240        2.23185102525232       -0.01996495896744
H            3.76266911882830       -1.50581767941086        0.17404709168182
H           -1.47982511272713        3.17217974992455       -0.04373185848485
H           -2.61917730000792        2.20415163950988       -1.02047301047083
H           -2.70747445794498        2.14545170336300        0.74487006118476
H           -0.60875561809335       -3.27517434250729       -0.14043015490491
H           -2.34937213017311       -2.59965581508245       -0.14370941612143
H           -4.84257666872436       -2.71391277543673        0.11256860102693
H            1.58896529887249       -2.82095767414478        0.06467114430897
