25
 energy: -0.540539131334 xtb: 6.6.1 (8d0f1dd)
C            3.25916525466622        1.19461411002105        0.09337557683897
N            2.32093711642096        0.12001072761965        0.03528261588609
C            2.63593988785111       -1.22393874005654        0.04600381086803
N            1.45837165530152       -1.92502149962996        0.01580214364809
C            0.41284011972694       -1.07379014187802       -0.01629447316107
C            0.92663429908996        0.22673021856268       -0.00386915540559
C            0.09595776435941        1.35481871351278       -0.03074529821862
O            0.44048300607616        2.54463650786920       -0.03649174728340
N           -1.30958516293120        0.98851716536390       -0.04508531757678
C           -2.21058600541584        2.12922937228251       -0.06646020085820
C           -1.85132640643091       -0.27604985542302       -0.04760633407571
O           -3.03344361375699       -0.58138914081818       -0.05411213568858
N           -0.93835870997971       -1.33942393705230       -0.03401820574074
C           -1.58187767978258       -2.63881576403728       -0.04848173014972
H            3.74705798721153        1.23794543957825        1.07355138563038
H            4.03093236486922        1.06781782683500       -0.67125683642042
H            2.72312575878098        2.12753552467083       -0.07356070633354
H            3.61530240159479       -1.64102577563821        0.07143493517524
H           -1.61393226399391        3.04411585667863       -0.03067126747456
H           -2.80015486607653        2.12278350916727       -0.98124618976466
H           -2.86694825100367        2.10049200566898        0.79924257569445
H           -1.08447117999138       -3.27940704363339        0.67575124003963
H           -1.42516829774692       -3.10460655291659       -1.01870931359670
H           -2.69505612899487       -2.53303961014798        0.15975589427141
H            1.41703711852992       -2.92712837436093        0.01815785427371
