25
 energy: -42.499258900554 xtb: 6.6.1 (8d0f1dd)
C            3.17167331972890        1.09010010463744        0.08835381383032
N            2.14473489411707        0.07400845828944        0.02886805143416
C            2.35890868842227       -1.25441913150011        0.02617264997668
N            1.15003296922820       -1.87288113632514        0.01650387025693
C            0.12446627489978       -0.95521668610303       -0.00344160356453
C            0.76469308274762        0.28918756735741        0.00427273812327
C            0.01376863703073        1.49874799883708       -0.02777699885506
O            0.47413954007512        2.63379659515603       -0.03977004544283
N           -1.35897809466142        1.21800705065571       -0.04337766367260
C           -2.17284578016390        2.42195457751347       -0.04919489337275
C           -1.99708841817225       -0.06741133821666       -0.05161099224652
O           -3.20337777275331       -0.11678953773479       -0.06886589609859
N           -1.18713555598837       -1.23290863509263       -0.03616561870079
C           -0.98035959802705       -3.32845228430115       -0.06008799371028
H            3.72997827736739        1.03424735262945        1.02912233056152
H            3.88095644278077        0.96856371811431       -0.73521783714753
H            2.70188968016779        2.07194166235998        0.02963641959588
H            3.32654092135139       -1.74768277199466        0.04202023326463
H           -1.43403547364115        3.23198800971165       -0.01268253827943
H           -2.77908973849207        2.46310832906387       -0.95408950011190
H           -2.83410442504241        2.42948608645280        0.81847443959249
H           -0.51266010075528       -3.60514642613295        0.86678206511207
H           -0.40222292693572       -3.57184619271043       -0.93063109382028
H           -2.04902156391210       -3.39241091445033       -0.10745089524890
H            0.77292369493100       -2.81823927442752        0.02909841978212
