25
 energy: 0.000000000000 xtb: 6.6.1 (8d0f1dd)
C            3.23720163006194        1.16630919979326        0.08434469647475
N            2.29877817382611        0.07527477071623        0.03981603040599
C            2.58028210190900       -1.21425402444508        0.03006176031096
N            1.43813958087363       -1.93419271955128        0.00098261760884
C            0.39035688448383       -1.05887472636071       -0.00790371836672
C            0.93510056364412        0.21347819449412        0.01709077491437
C            0.09450143893243        1.40504303904423       -0.00410947031874
O            0.49712751527797        2.54126714362870       -0.00342325688240
N           -1.25076640035757        1.06271879480407       -0.03085478223738
C           -2.21907211982101        2.15522099834493       -0.05001256985998
C           -1.81739487048744       -0.20012725993278       -0.04692818574614
O           -2.99983886758376       -0.37846417018721       -0.07008878229737
N           -0.92618586207120       -1.30210215599479       -0.03682761578324
C           -1.46982264913417       -2.64643102187190       -0.06029820460571
H            3.71247264356769        1.21471455160235        1.06488849150277
H            4.00791497605742        1.03430808813993       -0.67357694370751
H            2.69910007168542        2.09770118228144       -0.09130154882931
H            3.56654120610678       -1.63682992603973        0.04233140067262
H           -1.67107961066214        3.09322851271934       -0.02552706933167
H           -2.82428953597071        2.09428624779827       -0.95318082946668
H           -2.87644029173232        2.07745725625962        0.81450067533302
H           -1.17061996399332       -3.19584890659852        0.83242232437030
H           -1.14560257411436       -3.17511610292205       -0.95688275822323
H           -2.55549792440841       -2.55659984320617       -0.07459039797972
H            1.38130855184625       -2.94313852034425       -0.01389874181052
25
 energy: -2.777054973815 xtb: 6.6.1 (8d0f1dd)
C            3.23835644993457        1.19176014670321        0.08531392278893
N            2.33295761789012        0.08081400977298        0.03779355581884
C            2.63080261030715       -1.26915463015641        0.03115420484054
N            1.43420391301109       -1.93488124717749        0.00124678816216
C            0.40570416005041       -1.04489600228376       -0.00812503450993
C            0.94562504578919        0.22853411978186        0.01539367253228
C            0.09882060973597        1.40394871514858       -0.00434627110148
O            0.48384577123473        2.57358175387042       -0.00286806708826
N           -1.26631841661585        1.06013972042970       -0.03087228764987
C           -2.23839428412817        2.15109116210207       -0.04956957201630
C           -1.82388088861929       -0.19295135499056       -0.04776606072962
O           -3.01977292975336       -0.38088400983330       -0.07145628902610
N           -0.92773303358963       -1.28823899181220       -0.03716765128265
C           -1.46393325984018       -2.63140786713259       -0.06047591786112
H            3.71048967632471        1.25472338298970        1.06815276126479
H            4.00578154116070        1.07592083474806       -0.67843948966260
H            2.67752996205715        2.11281356840956       -0.09043209699653
H            3.60924518855309       -1.84142824987503        0.04507969824833
H           -1.69143500870247        3.09096523308780       -0.02489166958142
H           -2.84707825529290        2.09490415169990       -0.95232007569173
H           -2.89918471078683        2.07737049983622        0.81429448811698
H           -1.15873720942110       -3.18107137889573        0.83180234628614
H           -1.13294211162370       -3.16062273635655       -0.95603084115829
H           -2.55008878225139       -2.54758927537448       -0.07540603898263
H            1.35835101251218       -2.93441295251994       -0.01303017857319
25
 energy: 8.317985901064 xtb: 6.6.1 (8d0f1dd)
C            3.23573041670150        1.21860389772680        0.08551113221409
N            2.37139739174583        0.07531928940572        0.03402233169977
C            2.68259810243606       -1.32626382778514        0.03274467945695
N            1.42825126409798       -1.92597329693966        0.00223120413496
C            0.42101714142581       -1.02827987825898       -0.00809677247217
C            0.96176561111974        0.24348859788906        0.01362373567844
C            0.10853667219707        1.39957248737062       -0.00410971790962
O            0.45660020326921        2.59074476171191       -0.00190155843034
N           -1.27980034681193        1.06129046421755       -0.03072588989246
C           -2.25727959861518        2.14982075299964       -0.04887836852537
C           -1.82256284580190       -0.18377805410790       -0.04851197869088
O           -3.02222375646291       -0.38363234585402       -0.07325695684016
N           -0.92629024462295       -1.26937291223323       -0.03737079251753
C           -1.45337049097450       -2.61265931366978       -0.06075158469474
H            3.70641033060525        1.31044695193203        1.06869840524319
H            4.00521155146944        1.13867979153940       -0.68175718035763
H            2.64407058190797        2.12545257226891       -0.08948858349125
H            3.62791993883270       -2.09767070166856        0.04807949635315
H           -1.71839309207139        3.09489357598309       -0.02391766184816
H           -2.87109392090989        2.09383743301772       -0.94998809202021
H           -2.92293168738452        2.07522459141522        0.81303506096728
H           -1.14390274285837       -3.16208596989356        0.83143565838877
H           -1.11676164866070       -3.14196150004259       -0.95543221202233
H           -2.54018027816963       -2.53615421469516       -0.07665054006396
H            1.33749611547152       -2.92051455015706       -0.01150991821250
25
 energy: 17.972137896105 xtb: 6.6.1 (8d0f1dd)
C            3.22745389211242        1.23139697901574        0.08474348213882
N            2.38818937254465        0.06384955097891        0.03184870136085
C            2.70476302025960       -1.36003369179705        0.03391759938779
N            1.42895309846315       -1.92644492667234        0.00379545784571
C            0.42888299018265       -1.02475152160751       -0.00749610974401
C            0.97219080549303        0.24669180960003        0.01347481417500
C            0.11820348521596        1.40180688800418       -0.00339807476267
O            0.44582129023426        2.59524387218922       -0.00097977986044
N           -1.28129977183376        1.06842554870013       -0.03059259018961
C           -2.26511996660278        2.15238567007671       -0.04838346431283
C           -1.81828018539670       -0.17792554112408       -0.04911054580773
O           -3.01702964585929       -0.38348398720292       -0.07493210235291
N           -0.92108321230596       -1.25930655029125       -0.03724418566292
C           -1.44573562680257       -2.60190795177020       -0.06095739813333
H            3.69710970985228        1.34629386862323        1.06688951337406
H            4.00086429929803        1.18428666373950       -0.68279870383021
H            2.61284625433015        2.12529466991439       -0.08965990207579
H            3.63027819389412       -2.23542041608410        0.04857392126298
H           -1.73680459470952        3.10273880377630       -0.02309708848274
H           -2.88143780008741        2.09206379830196       -0.94828055594299
H           -2.93305169210883        2.07246276425812        0.81214333675274
H           -1.13535008882674       -3.14865276205039        0.83218516237569
H           -1.10664196892980       -3.12870962829677       -0.95581794398579
H           -2.53274616511901       -2.52624410455016       -0.07784302868606
H            1.33123897463831       -2.92103120355964       -0.00994661869635
25
 energy: 19.934550821252 xtb: 6.6.1 (8d0f1dd)
C            3.22375135552103        1.23353178860654        0.08448067110310
N            2.38871137218483        0.06198765638348        0.03135542188795
C            2.70677686549459       -1.36418191457576        0.03433305603562
N            1.43173729016592       -1.92656212123311        0.00433913099980
C            0.42961038673831       -1.02545169686149       -0.00720019912248
C            0.97370609009775        0.24653994390109        0.01367636336156
C            0.12067337407351        1.40490587365202       -0.00330882629659
O            0.44348934366266        2.59572985484813       -0.00081514696925
N           -1.28001295586730        1.07128049826378       -0.03059462216787
C           -2.26531407525355        2.15357644461584       -0.04830502310019
C           -1.81751156039692       -0.17717470996458       -0.04918896301077
O           -3.01518581319926       -0.38308235079187       -0.07535578340310
N           -0.91899746038590       -1.25772890624046       -0.03704044321425
C           -1.44460320526167       -2.60061836713750       -0.06094862109216
H            3.69245689161176        1.35042296958824        1.06603308213537
H            3.99676727999470        1.19159202212166       -0.68233794506018
H            2.60645797878042        2.12413335924838       -0.09012167543524
H            3.63277803510226       -2.25850431543841        0.04821997063942
H           -1.73968196203172        3.10491739585005       -0.02296954838548
H           -2.88154821641903        2.09167556794156       -0.94821952628919
H           -2.93307229659936        2.07189523784724        0.81228291337737
H           -1.13478299863795       -3.14661381691349        0.83238693184543
H           -1.10560682068737       -3.12664719918478       -0.95582975554804
H           -2.53171816255667       -2.52491352451933       -0.07812107814172
H            1.33333393180515       -2.92168108783520       -0.00971648800185
25
 energy: 20.769274964428 xtb: 6.6.1 (8d0f1dd)
C            3.22279269314444        1.23412604321281        0.08439577134892
N            2.38764065795600        0.06235712919883        0.03093072552717
C            2.70614974448650       -1.36339255007714        0.03466248555225
N            1.43357024358665       -1.92571875858490        0.00457988556756
C            0.42894087389151       -1.02596998553151       -0.00713138149692
C            0.97392886181550        0.24626828730283        0.01373451286257
C            0.12164974010091        1.40701064388363       -0.00340820629639
O            0.44157553110078        2.59629977536826       -0.00075671247524
N           -1.27912512282932        1.07196145193654       -0.03062827740711
C           -2.26496443438116        2.15358985361155       -0.04829878455558
C           -1.81798949195344       -0.17749099565318       -0.04919741053157
O           -3.01493017087427       -0.38280271775236       -0.07544812487119
N           -0.91835970005769       -1.25737520781132       -0.03690506553583
C           -1.44486123268855       -2.60073913955495       -0.06091559981987
H            3.69097339238439        1.35028908817131        1.06582376296270
H            3.99541292767995        1.19254416599104       -0.68193121357890
H            2.60584619989445        2.12378077508576       -0.09032149710492
H            3.63664846174044       -2.26529012911170        0.04796566274295
H           -1.74027837205559        3.10521875190950       -0.02296870392688
H           -2.88113043733958        2.09150981927084       -0.94824264393767
H           -2.93259967737283        2.07170545309060        0.81236432769907
H           -1.13524168815214       -3.14637081652075        0.83244226031586
H           -1.10595911049258       -3.12635587424775       -0.95579892153231
H           -2.53201523204522       -2.52500449050103       -0.07814970768044
H            1.33454001039707       -2.92112197051490       -0.00976324768093
25
 energy: 21.242617655081 xtb: 6.6.1 (8d0f1dd)
C            3.22295587646024        1.23426923317183        0.08438807515521
N            2.38663232598587        0.06324691817469        0.03053509568114
C            2.70504984221486       -1.36150175723311        0.03498944284944
N            1.43421849814288       -1.92492185193022        0.00471389498017
C            0.42807131839317       -1.02611583528037       -0.00716317575346
C            0.97371363675208        0.24609747486926        0.01371941538214
C            0.12200506094432        1.40783436420438       -0.00348929505059
O            0.44056277456283        2.59682497600149       -0.00069748885568
N           -1.27886628648507        1.07159123057317       -0.03065186724378
C           -2.26474079600892        2.15325143509740       -0.04831979649457
C           -1.81877177690466       -0.17791107196524       -0.04919265497898
O           -3.01543226879373       -0.38260726587319       -0.07543595810172
N           -0.91855082760791       -1.25740990877040       -0.03683516120245
C           -1.44535589243397       -2.60114036059543       -0.06090100666669
H            3.69102336077518        1.34943679253109        1.06595510423193
H            3.99552567679316        1.19165517942416       -0.68181979420194
H            2.60668810407935        2.12413428585817       -0.09032025315117
H            3.64122178957939       -2.26701104479868        0.04776222800999
H           -1.74021370666225        3.10498560289737       -0.02298679399479
H           -2.88093279153021        2.09148463191048       -0.94827061270917
H           -2.93240110854910        2.07168579320073        0.81235564459503
H           -1.13565151515690       -3.14663049358123        0.83243861016884
H           -1.10640010266442       -3.12656503232274       -0.95580301772616
H           -2.53246534578353       -2.52529748285020       -0.07811280069369
H            1.33432882183353       -2.92035721054138       -0.00982393808173
25
 energy: 21.636998681661 xtb: 6.6.1 (8d0f1dd)
C            3.22328768331331        1.23428997775626        0.08441007508215
N            2.38595172001882        0.06403852073821        0.03018026756174
C            2.70399656398337       -1.35976240445857        0.03538653643436
N            1.43414773673599       -1.92454165610801        0.00481028406998
C            0.42747732784414       -1.02601035651831       -0.00723414144867
C            0.97330434579953        0.24613725705654        0.01365148114527
C            0.12198292895659        1.40785053723894       -0.00355168950936
O            0.44033620458313        2.59716659503940       -0.00067139366707
N           -1.27914179767194        1.07104659824880       -0.03066930006583
C           -2.26480575759028        2.15304371331757       -0.04833055898457
C           -1.81938265045939       -0.17808343686759       -0.04919027713710
O           -3.01605909963793       -0.38256391345380       -0.07539471527119
N           -0.91900724879827       -1.25753951343920       -0.03681086754157
C           -1.44568586503481       -2.60143420829700       -0.06090686676556
H            3.69143289502397        1.34874453844841        1.06614738811087
H            3.99596935719064        1.19052832882013       -0.68185045642286
H            2.60764092284847        2.12482227625602       -0.09024951349500
H            3.64602768438438       -2.26773781559619        0.04759047715214
H           -1.74001631084423        3.10473572645969       -0.02298482959305
H           -2.88102289790389        2.09160235476218       -0.94829231213138
H           -2.93250574110401        2.07180212809190        0.81234928880065
H           -1.13582253068641       -3.14692698111531        0.83240445456059
H           -1.10663016244206       -3.12681639892045       -0.95582948348246
H           -2.53273408938751       -2.52551083317651       -0.07808337008131
H            1.33347344881459       -2.91985243211110       -0.00984658117347
25
 energy: 21.898542199291 xtb: 6.6.1 (8d0f1dd)
C            3.22336610032805        1.23427121852737        0.08443189594194
N            2.38581152280635        0.06430130727655        0.03000568206675
C            2.70345381504618       -1.35909258521809        0.03572696279016
N            1.43379299438708       -1.92467520269339        0.00485413585310
C            0.42744264120463       -1.02583638722016       -0.00729078493549
C            0.97294793555255        0.24635176328587        0.01357303571247
C            0.12169910008847        1.40750816943646       -0.00358164048363
O            0.44065111873759        2.59720385281942       -0.00069841800193
N           -1.27963611640658        1.07089601745151       -0.03067348793783
C           -2.26507376564312        2.15314563078630       -0.04832244458239
C           -1.81948656011726       -0.17792881402153       -0.04918846361359
O           -3.01630444684631       -0.38268650157605       -0.07536523607530
N           -0.91928031083376       -1.25762903517181       -0.03682194633059
C           -1.44570852960480       -2.60143517387170       -0.06092208432274
H            3.69159638979504        1.34861562514233        1.06622984950086
H            3.99616389582786        1.19014460114875       -0.68190000627140
H            2.60793091401171        2.12524094169268       -0.09020204418936
H            3.64898788271988       -2.26853883516626        0.04746370822354
H           -1.73991945610537        3.10469199395708       -0.02296684038899
H           -2.88127035802371        2.09178549511061       -0.94829675195309
H           -2.93276049690416        2.07197771102281        0.81236691249036
H           -1.13578283796212       -3.14701432837823        0.83237449649916
H           -1.10661714975572       -3.12688740513624       -0.95585324937781
H           -2.53274260230131       -2.52553149085956       -0.07808434871855
H            1.33295298793503       -2.91984996617273       -0.00982503574833
25
 energy: 22.056770028127 xtb: 6.6.1 (8d0f1dd)
C            3.22325043480265        1.23424349007476        0.08444103912430
N            2.38600105964438        0.06417875078264        0.02996797286388
C            2.70322322937517       -1.35915388650008        0.03603419104448
N            1.43345868990352       -1.92503309725520        0.00485955601725
C            0.42773619891641       -1.02570798557591       -0.00733705681471
C            0.97268660938652        0.24661645171619        0.01348561214907
C            0.12126400172111        1.40718199089438       -0.00360195414411
O            0.44108561894479        2.59706207342638       -0.00075548220776
N           -1.28007594936530        1.07110587677212       -0.03066734425065
C           -2.26537034078258        2.15341590225346       -0.04830037009146
C           -1.81925613397766       -0.17762515398140       -0.04918914568258
O           -3.01620459859337       -0.38286897058080       -0.07535026781136
N           -0.91933369060880       -1.25768048593715       -0.03685629507869
C           -1.44558957415780       -2.60126160564682       -0.06093898656183
H            3.69150293485872        1.34883335758067        1.06621083546255
H            3.99610391964623        1.19038899720719       -0.68191772051867
H            2.60771664613252        2.12528755988325       -0.09018901269149
H            3.65028973127599       -2.26949512729712        0.04734476858193
H           -1.73992255083794        3.10479237165128       -0.02294255014665
H           -2.88152000829522        2.09197273747663       -0.94828058386722
H           -2.93300609680169        2.07215548194017        0.81239787930136
H           -1.13570486951853       -3.14694772717057        0.83235808392757
H           -1.10653929478574       -3.12683220474286       -0.95586815162570
H           -2.53265741864449       -2.52545318934388       -0.07810275386602
H            1.33307611969730       -2.92014700545532       -0.00976836696620
