25
 energy: 0.000000000000 xtb: 6.6.1 (8d0f1dd)
C            3.23720163006194        1.16630919979326        0.08434469647475
N            2.29877817382611        0.07527477071623        0.03981603040599
C            2.58028210190900       -1.21425402444508        0.03006176031096
N            1.43813958087363       -1.93419271955128        0.00098261760884
C            0.39035688448383       -1.05887472636071       -0.00790371836672
C            0.93510056364412        0.21347819449412        0.01709077491437
C            0.09450143893243        1.40504303904423       -0.00410947031874
O            0.49712751527797        2.54126714362870       -0.00342325688240
N           -1.25076640035757        1.06271879480407       -0.03085478223738
C           -2.21907211982101        2.15522099834493       -0.05001256985998
C           -1.81739487048744       -0.20012725993278       -0.04692818574614
O           -2.99983886758376       -0.37846417018721       -0.07008878229737
N           -0.92618586207120       -1.30210215599479       -0.03682761578324
C           -1.46982264913417       -2.64643102187190       -0.06029820460571
H            3.71247264356769        1.21471455160235        1.06488849150277
H            4.00791497605742        1.03430808813993       -0.67357694370751
H            2.69910007168542        2.09770118228144       -0.09130154882931
H            3.56654120610678       -1.63682992603973        0.04233140067262
H           -1.67107961066214        3.09322851271934       -0.02552706933167
H           -2.82428953597071        2.09428624779827       -0.95318082946668
H           -2.87644029173232        2.07745725625962        0.81450067533302
H           -1.17061996399332       -3.19584890659852        0.83242232437030
H           -1.14560257411436       -3.17511610292205       -0.95688275822323
H           -2.55549792440841       -2.55659984320617       -0.07459039797972
H            1.38130855184625       -2.94313852034425       -0.01389874181052
25
 energy: -1.889973675029 xtb: 6.6.1 (8d0f1dd)
C            3.23718014558388        1.19369048704059        0.08516733495933
N            2.33471950321624        0.08026163512869        0.03784591387094
C            2.63478252774574       -1.27192494377312        0.03121816914138
N            1.43552306101138       -1.93322973488028        0.00128615115951
C            0.40629979853335       -1.04355280108388       -0.00806853392970
C            0.94627679249893        0.22954211968794        0.01548766714117
C            0.09768098769873        1.40498623705096       -0.00423720436987
O            0.48152336301812        2.57486981335616       -0.00273481466415
N           -1.26741365445802        1.06113813118356       -0.03086179947916
C           -2.24003466843436        2.15192731028983       -0.04958380514453
C           -1.82415742687565       -0.19232147237515       -0.04777797567528
O           -3.01988664813927       -0.38079999495686       -0.07152396025179
N           -0.92740757755869       -1.28726902471801       -0.03714939303568
C           -1.46352589466898       -2.63069994976491       -0.06048584503268
H            3.70886119013319        1.25691940065644        1.06800238321277
H            4.00441933780732        1.07806205394612       -0.67841896571804
H            2.67637405811961        2.11518626091872       -0.09063069024421
H            3.61538109172827       -1.86310321306863        0.04517065574851
H           -1.69400061889305        3.09240960931198       -0.02489656252351
H           -2.84878817913568        2.09543052927337       -0.95228793818270
H           -2.90090059784331        2.07785213465492        0.81421060199279
H           -1.15833515904364       -3.18036587347823        0.83177875902682
H           -1.13250051037341       -3.15990969297613       -0.95601761004252
H           -2.54979783902616       -2.54776318360349       -0.07545140161623
H            1.35994158529165       -2.93230723564856       -0.01300724019589
25
 energy: 12.709076540345 xtb: 6.6.1 (8d0f1dd)
C            3.23282165073173        1.22315325394953        0.08528769131936
N            2.37418062750848        0.07515155998500        0.03424401289340
C            2.69232777850116       -1.33087627561241        0.03279264675014
N            1.43175408857654       -1.92163600575562        0.00227333706642
C            0.42197152279787       -1.02568835488818       -0.00792774357125
C            0.96222667421044        0.24587871290450        0.01397653905590
C            0.10576305554453        1.40209482607066       -0.00383888319455
O            0.45101019893709        2.59372609596250       -0.00162039342673
N           -1.28241482561227        1.06344222155184       -0.03072723919596
C           -2.26072450019728        2.15184646559040       -0.04896385476087
C           -1.82347100168448       -0.18265944701210       -0.04850643355429
O           -3.02285117934288       -0.38342779790917       -0.07334545666932
N           -0.92608578547133       -1.26773861280214       -0.03731329743687
C           -1.45312457651889       -2.61156338072286       -0.06075460893818
H            3.70277560382240        1.31447852716485        1.06851997628310
H            4.00193382298612        1.14204345533873       -0.68155051059991
H            2.64244548566668        2.13136735250601       -0.09009390348008
H            3.64334003844717       -2.14618537185965        0.04803370210877
H           -1.72335960939963        3.09792237160465       -0.02399973293340
H           -2.87454989594504        2.09536656621519       -0.95009358311326
H           -2.92643357220135        2.07672175720861        0.81291953501868
H           -1.14368674900957       -3.16104408480106        0.83138208894511
H           -1.11652478761031       -3.14088840486233       -0.95539656659766
H           -2.54018164138868       -2.53680926015527       -0.07668777081430
H            1.34307224458769       -2.91564756749965       -0.01157565500698
25
 energy: 27.206204196992 xtb: 6.6.1 (8d0f1dd)
C            3.22318883758878        1.23916310230604        0.08452953443792
N            2.39239540163661        0.06441461717964        0.03204981411126
C            2.72062944705283       -1.36893678399244        0.03389268579719
N            1.43409324651285       -1.92042310147569        0.00379364187867
C            0.43088486925951       -1.02081897244181       -0.00726292775683
C            0.97256400237911        0.25104479282611        0.01401287306255
C            0.11443440653279        1.40581135620309       -0.00295877266673
O            0.43637860021337        2.60044132617306       -0.00051002582298
N           -1.28591882918945        1.07184755116078       -0.03059982633744
C           -2.27142611467898        2.15528834965658       -0.04851404020518
C           -1.81976892348378       -0.17598564448361       -0.04911849367030
O           -3.01831269545294       -0.38334811748088       -0.07507081962747
N           -0.92071074669840       -1.25620361480814       -0.03717116147594
C           -1.44524553718725       -2.59933539784595       -0.06095758937369
H            3.69188097223532        1.35492593632912        1.06682248186722
H            3.99641822854693        1.19196848992893       -0.68262855019553
H            2.60948033718456        2.13435967295214       -0.09063094211915
H            3.65869637588250       -2.31917898307616        0.04873738570450
H           -1.74541385963375        3.10705166473712       -0.02322909700282
H           -2.88803598685229        2.09455639564457       -0.94835839200842
H           -2.93972780881510        2.07491787156830        0.81186729055352
H           -1.13469657715989       -3.14604732761782        0.83210005635696
H           -1.10598721738242       -3.12606423055496       -0.95574918413254
H           -2.53259852888236       -2.52598925853917       -0.07787655794369
H            1.33901276832768       -2.91443109217684       -0.01013548728381
25
 energy: 32.998362659302 xtb: 6.6.1 (8d0f1dd)
C            3.21884894127010        1.24406469001981        0.08433361412106
N            2.39286937893161        0.06511348753821        0.03135778466430
C            2.72527264193988       -1.37472975698361        0.03393684962008
N            1.43775321640394       -1.91860496861854        0.00420323168000
C            0.43199841158418       -1.02003595716564       -0.00697227431568
C            0.97333702566337        0.25324331902290        0.01431368110123
C            0.11590380813961        1.41077559104102       -0.00277502956307
O            0.43051454070904        2.60284682805875       -0.00029629710394
N           -1.28637068928930        1.07572994958109       -0.03062176052527
C           -2.27370549642402        2.15699664981740       -0.04848236233114
C           -1.81970285919572       -0.17483088863475       -0.04918171771527
O           -3.01702957215490       -0.38342647040466       -0.07548598967900
N           -0.91845433767686       -1.25340967736195       -0.03693529304305
C           -1.44357495917864       -2.59715660782833       -0.06091494971203
H            3.68652900140664        1.36172997667306        1.06595707552200
H            3.99152723700757        1.20202246496995       -0.68204647139403
H            2.60294799187723        2.13605056941498       -0.09121558528629
H            3.67284180939214       -2.37244801889851        0.04893674425892
H           -1.75048443364787        3.10970055070126       -0.02316708375291
H           -2.89019361136539        2.09448902356850       -0.94839458271004
H           -2.94179232240451        2.07470382033899        0.81201880071764
H           -1.13346467716522       -3.14307814287485        0.83226324240721
H           -1.10435404725663       -3.12306663767789       -0.95567598330632
H           -2.53113288432557       -2.52444118854138       -0.07809204768145
H            1.34213055369559       -2.91321000358379       -0.01002969982567
25
 energy: 40.338489206307 xtb: 6.6.1 (8d0f1dd)
C            3.21612102838216        1.24912886793490        0.08430005297091
N            2.38850839261024        0.07153832431320        0.03047941285649
C            2.72483302452881       -1.37215783108340        0.03309628753691
N            1.44199089958572       -1.91414692855840        0.00430968132335
C            0.43050746482606       -1.01902989962750       -0.00679245941507
C            0.97125179648987        0.25611172927478        0.01477131756519
C            0.11545652534936        1.41734891377760       -0.00266323586760
O            0.42348077358199        2.60591719503556       -0.00007074103549
N           -1.28718345229502        1.07833328155930       -0.03072304057981
C           -2.27564219095467        2.15779499743667       -0.04858268002147
C           -1.82171989355550       -0.17506449015356       -0.04919442138523
O           -3.01745395832525       -0.38345440473487       -0.07565173285902
N           -0.91747562573696       -1.25170161124854       -0.03662902589263
C           -1.44356461288560       -2.59670032012031       -0.06080521149554
H            3.68329953126075        1.36443481743375        1.06550509308281
H            3.98792748300021        1.20626222277268       -0.68120600249395
H            2.60214050154096        2.13999489195116       -0.09164614519602
H            3.70185221424223       -2.42832395233862        0.04974741783439
H           -1.75393326518563        3.11081220738325       -0.02327186363793
H           -2.89179378492034        2.09467933072899       -0.94862895390693
H           -2.94333972396404        2.07488607545608        0.81212094616284
H           -1.13359869589448       -3.14179001294738        0.83238331258588
H           -1.10436298859645       -3.12169814806261       -0.95555098054549
H           -2.53129611105107       -2.52459100511655       -0.07806820147407
H            1.34620933590286       -2.90955564889416       -0.01019492996524
25
 energy: 52.857625083343 xtb: 6.6.1 (8d0f1dd)
C            3.21369967057647        1.25680132238879        0.08445968328446
N            2.37775496561418        0.08664355833026        0.02869972934291
C            2.71750546568488       -1.35769693205219        0.02831318089949
N            1.44608315344717       -1.90571723787443        0.00351807349860
C            0.42561294767448       -1.01670865282127       -0.00660865514524
C            0.96502440181264        0.26081125336777        0.01576957652831
C            0.11238237530502        1.42594378831137       -0.00193546705958
O            0.41480552831229        2.61101160208828        0.00048679526221
N           -1.28950559773984        1.07976023979756       -0.03081988847643
C           -2.27830492541408        2.15811406546936       -0.04895083667125
C           -1.82652241188651       -0.17615638175278       -0.04908652957596
O           -3.02045368731485       -0.38304137313167       -0.07571515616281
N           -0.91872368455547       -1.25052256435104       -0.03598597184039
C           -1.44493774590281       -2.59763021573245       -0.06052036885385
H            3.68132776611064        1.36521630599188        1.06567362419602
H            3.98457463359397        1.20663194347622       -0.68064684515783
H            2.60481881294996        2.14917349931255       -0.09156771858525
H            3.76520677409121       -2.51442386940171        0.05385506661926
H           -1.75699112585366        3.11119355191015       -0.02364488080860
H           -2.89392583504247        2.09544369712626       -0.94923536780527
H           -2.94559192046470        2.07581292359943        0.81198231631656
H           -1.13436265248764       -3.14172206298826        0.83257975493156
H           -1.10514518905820       -3.12143105892553       -0.95526409366472
H           -2.53268005001262       -2.52633298016216       -0.07778484782318
H            1.35056299849613       -2.90214581980439       -0.01053727710174
25
 energy: 57.727108488783 xtb: 6.6.1 (8d0f1dd)
C            3.20615169808163        1.27429856457019        0.08535214987618
N            2.35750892019030        0.11646592105178        0.01748299521848
C            2.70659882640268       -1.32913383519803       -0.01636626399819
N            1.45593827855347       -1.88456238714455       -0.00621255743306
C            0.41775913612839       -1.00879071096711       -0.00614455911222
C            0.95291596711314        0.27348315387968        0.02029441541451
C            0.10518274851278        1.44348487871425        0.00762139218721
O            0.39527800120062        2.62206417290459        0.00354652761488
N           -1.29604620012092        1.08439103937531       -0.02977897425450
C           -2.28545515533822        2.15995921712507       -0.05105736797978
C           -1.83489524629197       -0.17718566604165       -0.04780445721176
O           -3.02539571320252       -0.38326326841580       -0.07618415598925
N           -0.92073801590018       -1.24639508092176       -0.03191594072680
C           -1.44537218075265       -2.59792046208277       -0.05826432115425
H            3.67546567925208        1.36731595981775        1.06568746467293
H            3.97473607380003        1.21273922455702       -0.67953606184203
H            2.60676019594484        2.16942959655987       -0.08868449218882
H            3.88952010628004       -2.72143697807449        0.09174877340228
H           -1.76485050815936        3.11300249564530       -0.02573953665958
H           -2.89915377123436        2.09630974717391       -0.95226891761995
H           -2.95204742978588        2.07786724729111        0.81019192213337
H           -1.13377063454306       -3.14050953013423        0.83451519216876
H           -1.10430752917304       -3.11946725404657       -0.95302110806517
H           -2.53328925772261       -2.52944330961844       -0.07577310554759
H            1.36372067870094       -2.88367413384839       -0.01065511675839
25
 energy: 56.408976120372 xtb: 6.6.1 (8d0f1dd)
C            3.19130418271288        1.29713094867520        0.08369643499468
N            2.31012059202247        0.16542663819503        0.01684283402043
C            2.67169257225069       -1.25845402503220       -0.03946642263384
N            1.47454587274183       -1.84364616795361       -0.00802715283799
C            0.40082506084463       -0.99328661152788       -0.00198508066968
C            0.93042659900236        0.29111079554493        0.02726271646192
C            0.08942813182371        1.47186786140714        0.00918886782185
O            0.37079804236023        2.62756224051253        0.00384433855945
N           -1.30192510972476        1.09431902566341       -0.03097791790891
C           -2.29396268782504        2.16305317846977       -0.05133589520494
C           -1.84591001771274       -0.18076106163831       -0.04820805862497
O           -3.02984575486953       -0.38267562132387       -0.07675819310687
N           -0.92318276255325       -1.23983515711285       -0.03017115718375
C           -1.44483534702769       -2.59916108848879       -0.05826234746045
H            3.66403287665389        1.36872759119605        1.06180651739845
H            3.96006455781195        1.21138436486804       -0.67600019452031
H            2.61051354119718        2.19525328066832       -0.09189157435037
H            4.08889876034385       -3.04785887150507        0.11211768160688
H           -1.77505687919715        3.11597536782779       -0.02587583966907
H           -2.90534141696650        2.09642427634394       -0.95287368657639
H           -2.95757880303494        2.07765756905713        0.81107893644952
H           -1.13154849192979       -3.13854097419042        0.83412063778577
H           -1.10167347512496       -3.11706553471377       -0.95259443766684
H           -2.53286965383377       -2.53396161060088       -0.07601914624434
H            1.39329427797066       -2.85161781216961       -0.01247796429297
25
 energy: 54.023323193840 xtb: 6.6.1 (8d0f1dd)
C            3.18039780228906        1.30362005504958        0.07711191303931
N            2.27293367491550        0.18920567781250        0.02852453008477
C            2.64054589892235       -1.17100521147578        0.00279157794339
N            1.48109021360325       -1.80923168217575        0.00021763651596
C            0.38554651750991       -0.97557117011966        0.00251024744152
C            0.91225255077884        0.30004438501020        0.02662782337914
C            0.06459530132500        1.47859825909714       -0.00445350368795
O            0.36196472859326        2.63125496739417        0.00064749234608
N           -1.30792461700928        1.09756952292711       -0.03186840183187
C           -2.30006311573653        2.16510576751666       -0.04799995658786
C           -1.85166234723300       -0.18377787901325       -0.04852411622322
O           -3.03700253233581       -0.38038009405540       -0.07611444970687
N           -0.93446098279682       -1.23743296866251       -0.03369547729349
C           -1.44691322271055       -2.60017953303418       -0.06156442518268
H            3.65417398899375        1.36237197620827        1.05667365897170
H            3.95537860117876        1.19169614091473       -0.67485299194683
H            2.62059630805114        2.21493753826716       -0.10076072103788
H            4.25633752478767       -3.26217159416272        0.09316866633459
H           -1.77863028759933        3.11756797390722       -0.02280080566964
H           -2.90988442533463        2.09752254057582       -0.94952448725450
H           -2.96088637494140        2.07742411201156        0.81526145703556
H           -1.13023978358092       -3.13948118990472        0.83016182157990
H           -1.10066025354415       -3.11705165424110       -0.95577218551235
H           -2.53455038675857       -2.53883620015858       -0.07910105799969
H            1.41927988656871       -2.82277113751649       -0.01963034858979
25
 energy: 52.111114727761 xtb: 6.6.1 (8d0f1dd)
C            3.17450102612447        1.30604117193892        0.08056047193214
N            2.25875415053109        0.19518258348440        0.03299745892517
C            2.62968423547597       -1.10157239952060        0.01922881330113
N            1.47503950246199       -1.79477494355953        0.00310270355806
C            0.37765825544986       -0.96481396891419       -0.00283891644812
C            0.89638486270088        0.30828938826608        0.02145411972089
C            0.03901307693608        1.47410305877036       -0.00002728905978
O            0.36306987809084        2.63516938722152        0.00296879645930
N           -1.31675830606777        1.09878156697747       -0.03031075564330
C           -2.30692150888454        2.16808021594540       -0.05065236187278
C           -1.85300352616470       -0.18377825573465       -0.04990298447968
O           -3.04362359987453       -0.37663504867803       -0.07674956123659
N           -0.94754953038798       -1.23854052085811       -0.03788023278663
C           -1.45065810427103       -2.60024688832538       -0.06014622941119
H            3.65403377724389        1.35758952263331        1.05943479395862
H            3.94746255730105        1.18173561031791       -0.67432065056472
H            2.62582304554602        2.22838355622025       -0.09492791625332
H            4.38887450549603       -3.39375740143771        0.06155916841990
H           -1.77879253401836        3.11808432713684       -0.02446324334207
H           -2.91335614420346        2.10051361975672       -0.95400377964480
H           -2.96697801616127        2.08068103684663        0.81226034836922
H           -1.13014732390229       -3.13953719272636        0.83177474392273
H           -1.10294307024519       -3.11990911422963       -0.95352996838406
H           -2.53804422600062       -2.54269599301989       -0.07644183150498
H            1.43069168475975       -2.80734471633972       -0.01211180178782
25
 energy: 51.790847663307 xtb: 6.6.1 (8d0f1dd)
C            3.17251548549851        1.30795653599567        0.08164376688994
N            2.25925872811205        0.19479086169076        0.03724677024405
C            2.63135068336007       -1.08893265864865        0.03070759449374
N            1.46650696186432       -1.79882325498900        0.00338949738477
C            0.37960754223222       -0.96434670310007       -0.00568159306917
C            0.88740690220592        0.31482623203365        0.01728831316307
C            0.02887812290204        1.47063165955636       -0.00510348035182
O            0.36690815494242        2.63506856101243       -0.00222012250444
N           -1.32276767383440        1.09989380164052       -0.03182047785050
C           -2.31112162918697        2.17048128053503       -0.04859481665532
C           -1.85130355871824       -0.18150115049237       -0.04935650013956
O           -3.04436651654259       -0.37534786803288       -0.07432961830103
N           -0.94986923106297       -1.23956449364838       -0.03910799652503
C           -1.45095175941513       -2.59889746813130       -0.06187562609881
H            3.65272078450167        1.36121360770114        1.06006399840638
H            3.94471043565691        1.17789570366185       -0.67455393818019
H            2.62541605662993        2.23181059756560       -0.09788431699951
H            4.43522339241784       -3.42351635101877        0.05988940980950
H           -1.77798756402185        3.11832529144919       -0.02359155897107
H           -2.91863101840382        2.10343803565461       -0.95088659078813
H           -2.96832493629533        2.08357974456296        0.81635231353321
H           -1.13078564885142       -3.13998623648000        0.82971768798786
H           -1.10273446197954       -3.11972785387619       -0.95521267781445
H           -2.53851868160946       -2.54279640239954       -0.07868619696064
H            1.42907409753398       -2.80744287007062       -0.01035994455558
25
 energy: 51.683205130450 xtb: 6.6.1 (8d0f1dd)
C            3.17299282388003        1.30724081837159        0.08253617640351
N            2.26055645623327        0.19363634324031        0.03804820489570
C            2.63075380209290       -1.09061946007084        0.03067901421903
N            1.45821367456953       -1.80351834113839        0.00278343168137
C            0.38186462213752       -0.96527893141659       -0.00707268814800
C            0.88290054574315        0.31831349817810        0.01657532209830
C            0.02559189874059        1.46915717123828       -0.00176283587854
O            0.36987455290743        2.63447230380762        0.00104022572562
N           -1.32539827808426        1.10016222739384       -0.03116354733032
C           -2.31244899455669        2.17098708063323       -0.05008432815504
C           -1.85011930399294       -0.17953346634139       -0.04938651790119
O           -3.04394100475260       -0.37540932451292       -0.07531105543786
N           -0.94939101229535       -1.23980944841724       -0.03826325321032
C           -1.45067939745362       -2.59775304490035       -0.06068407212813
H            3.65448264658782        1.35918892918361        1.06015765450970
H            3.94459860464124        1.17909156068203       -0.67536021318190
H            2.62467103050274        2.23067140658697       -0.09492712114045
H            4.45032050565362       -3.41570449962291        0.05307302179519
H           -1.77720420251168        3.11783450093405       -0.02406663295113
H           -2.91743362556902        2.10358233687484       -0.95385526499771
H           -2.97107535827420        2.08397029663418        0.81353121217740
H           -1.13075527343925       -3.13928209702604        0.83110524054408
H           -1.10291896689684       -3.11995336732351       -0.95372123506192
H           -2.53846325029033       -2.54238610789170       -0.07722577791496
H            1.42522217236318       -2.81003178292476       -0.00961106446514
25
 energy: 51.634019121815 xtb: 6.6.1 (8d0f1dd)
C            3.17370088780173        1.30528406368779        0.08244974134739
N            2.26117052859419        0.19178343843055        0.03878596332859
C            2.62764287800177       -1.09433539644830        0.03307432669289
N            1.45142864142172       -1.80654398844753        0.00337084169130
C            0.38258386650653       -0.96640983017248       -0.00808876138320
C            0.88095270992072        0.31907412392327        0.01466948606791
C            0.02517132740092        1.46833401450428       -0.00468537662095
O            0.37180140646117        2.63363730506996       -0.00121105142828
N           -1.32624350956386        1.09985497831079       -0.03221234737520
C           -2.31239219266856        2.17108265999491       -0.04883936019865
C           -1.85013119361188       -0.17824204053286       -0.04960407853034
O           -3.04402877044105       -0.37569264098812       -0.07457151634865
N           -0.94917684104190       -1.23993248925809       -0.03831573897701
C           -1.45093846031267       -2.59735921512729       -0.06166949475592
H            3.65454098684372        1.35942885053568        1.06022497924017
H            3.94596741379814        1.17740391508251       -0.67502905406446
H            2.62442277991282        2.22775810564384       -0.09666795748793
H            4.46044233745234       -3.39819869543105        0.05577703564182
H           -1.77638820761799        3.11756997882382       -0.02362298312331
H           -2.91922317528277        2.10430480094644       -0.95132353014842
H           -2.96931851125637        2.08423376196049        0.81598145414447
H           -1.13134812509309       -3.13969758604052        0.82992673638842
H           -1.10321914689839       -3.11958565862720       -0.95486399835777
H           -2.53878646256548       -2.54218617493265       -0.07842674848689
H            1.42358350017443       -2.81253767873621       -0.00809467110868
25
 energy: 51.600083850482 xtb: 6.6.1 (8d0f1dd)
C            3.17412848968562        1.30344699427399        0.08255310904117
N            2.26142018619693        0.18995612025907        0.03856479047614
C            2.62405188985389       -1.09827704073684        0.03175495569298
N            1.44724525596048       -1.80741915698713        0.00271151749540
C            0.38145847345057       -0.96673794261287       -0.00791365506048
C            0.88093184989300        0.31836408255883        0.01548529975334
C            0.02607155755271        1.46831942551997       -0.00227004774829
O            0.37164424436131        2.63359929924917        0.00097243715466
N           -1.32628623480364        1.09945870390787       -0.03131614413477
C           -2.31200250556143        2.17101271897385       -0.04998272117476
C           -1.85131413465789       -0.17752229969793       -0.04912601835002
O           -3.04487986413993       -0.37563817787806       -0.07508091705376
N           -0.95001589051387       -1.23961345250881       -0.03734543182331
C           -1.45157018992746       -2.59736731584061       -0.06087155352196
H            3.65550851304820        1.35729933832986        1.06015331613516
H            3.94592231963801        1.17719446895410       -0.67556593655225
H            2.62449542071295        2.22623789578281       -0.09498354650251
H            4.47073970525959       -3.38484097307536        0.05362684503895
H           -1.77625248532428        3.11763026103992       -0.02424409285003
H           -2.91751240132764        2.10419302403715       -0.95343683561056
H           -2.97059851815899        2.08481425342749        0.81367414240250
H           -1.13166334052458       -3.13946847563784        0.83080552706781
H           -1.10360074769544       -3.11959351943614       -0.95396370569054
H           -2.53935759945655       -2.54233737099316       -0.07748426476771
H            1.42365067441463       -2.81368225873729       -0.00968317326987
25
 energy: 51.591820268019 xtb: 6.6.1 (8d0f1dd)
C            3.17401824936484        1.30237363557442        0.08232719494007
N            2.26138208592263        0.18864999912677        0.03814436420784
C            2.62071001372435       -1.10158544489233        0.03197454248115
N            1.44517970491512       -1.80693846750945        0.00344942956469
C            0.37923238884378       -0.96612324396949       -0.00806606145105
C            0.88186304192709        0.31743032297408        0.01502595537263
C            0.02746578042878        1.46867519794467       -0.00386106546480
O            0.37066464757828        2.63402777668894       -0.00033769092234
N           -1.32591965766019        1.09921857149575       -0.03189505328693
C           -2.31162790753283        2.17098211670884       -0.04920527926995
C           -1.85273239546336       -0.17725316805197       -0.04979577877561
O           -3.04597950480284       -0.37529576472152       -0.07514039147109
N           -0.95148702524499       -1.23910070899446       -0.03785079625714
C           -1.45207381873076       -2.59757720573909       -0.06131931070582
H            3.65482590445856        1.35721313805501        1.06028366142407
H            3.94620526325156        1.17622397735154       -0.67522903235240
H            2.62458696988217        2.22549410886505       -0.09583721432979
H            4.48098299796841       -3.37897393337553        0.05555362318496
H           -1.77627630549226        3.11779346825597       -0.02362058863507
H           -2.91821579389124        2.10453348119852       -0.95206285287198
H           -2.96942721330648        2.08442468239616        0.81514121372556
H           -1.13169136179831       -3.13933098290315        0.83035161507514
H           -1.10360726934937       -3.11943906840109       -0.95437074877547
H           -2.53973487889355       -2.54273852114167       -0.07801550867842
H            1.42387075183676       -2.81365536476398       -0.00861033058093
25
 energy: 51.607979314582 xtb: 6.6.1 (8d0f1dd)
C            3.17379781138709        1.30238110707262        0.08233142810441
N            2.26125917995738        0.18856927079065        0.03813072158726
C            2.61957659806726       -1.10228393606243        0.03155010348109
N            1.44539270727501       -1.80616709761294        0.00300224302609
C            0.37798720525085       -0.96527591406995       -0.00759219686587
C            0.88248238431069        0.31728002751454        0.01579073133278
C            0.02780542204434        1.46884432468524       -0.00300106142336
O            0.36998810197448        2.63430736344067        0.00016915041638
N           -1.32578205703132        1.09923436389286       -0.03136717942633
C           -2.31165101494391        2.17102027930470       -0.04966363364667
C           -1.85315558366662       -0.17744924121403       -0.04915795118401
O           -3.04639983617377       -0.37513699839573       -0.07492260873798
N           -0.95224621470491       -1.23893842118196       -0.03761487744975
C           -1.45213901359881       -2.59769350855976       -0.06115436332463
H            3.65486838043006        1.35705796627915        1.06020938555356
H            3.94584888128967        1.17626333376702       -0.67537118599001
H            2.62452739752480        2.22573318040960       -0.09560779788277
H            4.48540751771811       -3.38081970845024        0.05541828890829
H           -1.77645499127553        3.11788396049204       -0.02418472493965
H           -2.91773747234967        2.10410823184252       -0.95283366913056
H           -2.96991727974421        2.08470006738817        0.81435759614102
H           -1.13156081241996       -3.13939797906054        0.83042209124829
H           -1.10357084204284       -3.11927282928718       -0.95430056044722
H           -2.53975919317694       -2.54289320432087       -0.07776101731281
H            1.42364739183493       -2.81302603649215       -0.00981501589027
25
 energy: 51.620287922448 xtb: 6.6.1 (8d0f1dd)
C            3.17366479510971        1.30264457018802        0.08231502230617
N            2.26122340162558        0.18887815877502        0.03798200240817
C            2.61942082699651       -1.10216763810804        0.03129066091897
N            1.44596654361110       -1.80585899804939        0.00324896937276
C            0.37762543114851       -0.96469840476693       -0.00769925390728
C            0.88266303320385        0.31752612994605        0.01555380062729
C            0.02753944466361        1.46880087777656       -0.00357738289455
O            0.36984792248464        2.63438345458873       -0.00020995108968
N           -1.32582816540656        1.09932133228931       -0.03181576844643
C           -2.31178744303205        2.17106564000847       -0.04928509898451
C           -1.85296830233494       -0.17769031672737       -0.04990264922279
O           -3.04640834742866       -0.37501849350314       -0.07527470890443
N           -0.95242117677133       -1.23905063175991       -0.03816178576648
C           -1.45205842322780       -2.59771498915421       -0.06118042462649
H            3.65464718817891        1.35722965276892        1.06023346190888
H            3.94589613782806        1.17633635641269       -0.67525480658407
H            2.62454009828574        2.22600793223175       -0.09578070297352
H            4.48670499247681       -3.38313129891522        0.05589625847941
H           -1.77647765602910        3.11785342168078       -0.02353029816877
H           -2.91807668539004        2.10443610544308       -0.95229613670591
H           -2.96968635714397        2.08423772014872        0.81494651782806
H           -1.13156162003784       -3.13916302700652        0.83056718418593
H           -1.10347199686290       -3.11956203748325       -0.95416431165016
H           -2.53970635953681       -2.54293710892844       -0.07791340213229
H            1.42292738552516       -2.81269980568365       -0.00895329983101
