72
 energy: -99.298184378864 gnorm: 0.004748446474 xtb: 6.6.1 (8d0f1dd)
N           -1.71828494112676        3.05041329443167        2.09435040173608
C           -1.91355373074234        2.23370769758610        1.20704155655504
C           -2.98493119828181        1.96281837854430        0.24724547010152
C           -3.41212061978586        0.50578759997744        0.34881050259901
C           -4.37213037693792        0.00076817582424       -0.52932944018889
C           -4.79436724020959       -1.31507322695734       -0.45351090004782
O           -5.71447464977941       -1.88549982544869       -1.25695565376052
C           -6.34378903754664       -1.10668486954258       -2.24724463324515
C           -4.24174795916601       -2.17168946007337        0.53702796059933
O           -4.72625889385362       -3.42913892332229        0.54505022501167
C           -4.29507375196491       -4.32541091405885        1.54214954387077
C           -3.27668461637054       -1.66736619108944        1.39314975315941
C           -2.86518191044169       -0.34304382067925        1.29555170641112
C           -2.41657933318144        2.24234245315401       -1.17097917735112
C           -1.47275500443420        1.15173406293079       -1.68055736280460
C           -0.15197408413516        1.11301719938418       -0.91041170547278
N            0.25422627138578       -0.27720239382135       -0.50267595747081
C            1.67822251474504       -0.26623171523065       -0.02609410588260
C            2.68102782037650       -0.29041243903824       -1.18307379058472
C            4.09444837826365       -0.09294894264788       -0.70040828061277
C            4.71365646664328        1.13985089689500       -0.81666697136767
C            6.03738728324233        1.31056325004482       -0.43842113721370
C            6.76730194588327        0.24813851769093        0.07177052115769
O            8.06450230358417        0.28813337300028        0.43288522085404
C            8.80307936344788        1.46617516083608        0.20348097050318
C            6.12935586118641       -1.01301277450992        0.23056289736376
O            6.90665280638073       -1.98317436813332        0.75309625491981
C            6.38061232592588       -3.27930397617234        0.90893210714885
C            4.80843543931463       -1.16159853516949       -0.16126622288217
C            0.03455927407290       -1.32776189627409       -1.48224161597494
C           -4.23317887149750        2.87800741859251        0.52342143272466
C           -4.83799403798354        2.57976967493840        1.89110767895715
C           -3.92595463233486        4.36491843883130        0.39738100511887
H           -4.79930319881294        0.64790182070686       -1.27712780660325
H           -6.89568802764837       -0.26899715191267       -1.80979518937637
H           -7.04307605768704       -1.77634687271911       -2.74383579196101
H           -5.62356769978891       -0.73006445552615       -2.98087685216638
H           -4.51961131860087       -3.94800049788791        2.54436134357011
H           -4.85314734115587       -5.24348258407095        1.36950647289897
H           -3.22355951557891       -4.53350604238461        1.45978186312354
H           -2.84483974250819       -2.29476622391350        2.15605190920445
H           -2.13137060831065        0.03396757088179        1.99622622517459
H           -3.25417520095149        2.32269899653537       -1.86283660408758
H           -1.89540486820290        3.20035070681870       -1.16907918776815
H           -1.96851851846523        0.18287965083425       -1.60177445277180
H           -1.28140180253905        1.32911528543648       -2.73936940784217
H           -0.26361320770357        1.69964304236855        0.01355725171506
H            0.65197931243221        1.54167811703684       -1.50810164557984
H            1.83037879109696       -1.15332342433554        0.59056114047358
H            1.83675843571660        0.62173222400521        0.59153487254111
H            2.44832100754660        0.49828544998457       -1.89907301203947
H            2.59676978610612       -1.24965263883199       -1.69528601716856
H            4.17579284206191        1.98090633894110       -1.22772913585106
H            6.49595379656966        2.27833889450991       -0.55810284534218
H            8.43585375554634        2.29628592440241        0.81471253591880
H            8.78151264162838        1.75192918193359       -0.85255627420242
H            9.82567062820173        1.23129532870201        0.49270223505958
H            7.18784681638783       -3.87208708660286        1.33478716700070
H            5.52671022746979       -3.28680056187800        1.59386007965237
H            6.08351583945802       -3.70992366210851       -0.05228951664715
H            4.32485345230659       -2.12182643508292       -0.07586104953981
H            0.29224820602926       -1.06652145566581       -2.49266574334066
H           -0.87826602497665       -1.87953012300173       -1.35129463237480
H           -0.33219319470122       -0.52502681225160        0.29572575510092
H           -4.96860919476424        2.61230348089940       -0.24214007882743
H           -4.14861642993028        2.85757209975600        2.68404167437035
H           -5.08191327462887        1.52483660485563        1.99222074767475
H           -5.75078345112065        3.15536063166614        2.01981500239357
H           -3.16015177677558        4.66222007224703        1.10909165596390
H           -3.60120458066461        4.62920675203780       -0.60520283494051
H           -4.82556078180395        4.93403268526017        0.61712756250763
H           -0.89950728891638        3.13086337036076        2.67741917276933
