72
 energy: -99.335856938016 gnorm: 0.003124170745 xtb: 6.6.1 (8d0f1dd)
N           -1.29889162731185        1.49343335168635        4.19437968588117
C           -1.50588005777244        0.86774162312981        3.24079211485927
C           -3.73715883841451        1.70492536235580        0.07832534613929
C           -4.18757750336086        0.37185329329606        0.09867636652599
C           -5.39004127433851       -0.04132164525605       -0.53698267262874
C           -5.80693903804874       -1.35223388238095       -0.53334158040497
O           -6.91887735901907       -1.82183413154636       -1.13498212215561
C           -7.76172943046010       -0.92896073350731       -1.82326341236557
C           -5.03454200345670       -2.34551653558669        0.14200224485211
O           -5.52494554383586       -3.59003788622365        0.10017951566448
C           -4.82562905153762       -4.63306375669774        0.74077203350075
C           -3.86008395577741       -1.94990866920831        0.78070897229420
C           -3.44203718706860       -0.64143414300833        0.75611403538645
C           -2.32585576163685        2.01891076904435        0.43791960917750
C           -1.30782098488637        1.32052690679315       -0.48440623282930
C            0.03935007970486        1.12562090252123        0.21712249088004
N            0.90386574638356        0.19979641186713       -0.48462130341935
C            2.31666748274233        0.35025638513317       -0.20866956524215
C            3.18873479916932       -0.04877438809444       -1.41260594126092
C            4.63751840176866        0.08293355018098       -1.04751477051021
C            5.33685695625285        1.25489112046667       -1.29826225367173
C            6.66172333136220        1.38889125878424       -0.91544526752026
C            7.31844966783267        0.35242653430721       -0.26473324323587
O            8.59647918813314        0.37281890718064        0.15509239645513
C            9.38160194045444        1.51854833372031       -0.08165665321912
C            6.61046388750518       -0.85448281329949       -0.00143300862797
O            7.32013428372951       -1.80940456986728        0.63056779118851
C            6.71300755102558       -3.04742237409303        0.91422458182547
C            5.28584456707554       -0.96362949418734       -0.39645959812231
C            0.45510969704287       -1.17115205903428       -0.41523497766574
C           -4.63037530375097        2.86051103900327       -0.24427898354538
C           -4.83227325989295        3.72068891589780        1.01369138338364
C           -4.07264372628941        3.70617795862123       -1.39315624475818
H           -5.97057757028296        0.68334054551192       -1.08089180574745
H           -8.16187040300663       -0.15961478225404       -1.15566599477350
H           -8.58009562435819       -1.53620651836523       -2.20457798285291
H           -7.24323102964047       -0.45358896214553       -2.66212211659080
H           -4.74375116266803       -4.45633908639954        1.81731152170618
H           -5.41476314197216       -5.53141806948153        0.56668707006583
H           -3.82705328259887       -4.76575498698265        0.31399193103933
H           -3.26745460846674       -2.67639656748070        1.31364710132170
H           -2.55522605474605       -0.38259305566614        1.30704657335419
H           -2.15311237967894        3.09281137305711        0.41676126311994
H           -2.14023007372140        1.68592670750954        1.46898246836298
H           -1.70937129933452        0.35614997055025       -0.78630216991294
H           -1.16412653447194        1.91273527880223       -1.38858497667072
H           -0.14158212117358        0.77306521332048        1.24732624911799
H            0.54581701330191        2.09082203680835        0.28262379394398
H            2.61606893117789       -0.25215160841471        0.66353793996835
H            2.52350158525385        1.39661634569346        0.02409395273260
H            2.94326138630617        0.60059941212499       -2.25247493200478
H            2.97585637499433       -1.07777070746298       -1.70236620582959
H            4.84850743267413        2.07332741014122       -1.80423862645570
H            7.17938026653255        2.30972583600292       -1.12910746033319
H            8.97052955041347        2.39718077317680        0.42486243741553
H            9.47585960410593        1.72465873849088       -1.15216500491258
H           10.36281220735375        1.29047953359418        0.33006867510018
H            7.48030563041763       -3.64361755407738        1.40433537384112
H            5.85963124034689       -2.93046202640821        1.58968395733579
H            6.38945581599423       -3.55432865150000        0.00002065655978
H            4.74147781254295       -1.87550092484902       -0.20617565031672
H           -0.50354406658239       -1.28055902483811       -0.91891008738353
H            0.34231079270624       -1.51022020406467        0.62502796857514
H            1.17046574683264       -1.81763714741876       -0.91538907002582
H           -5.61760254175231        2.50214576830639       -0.53941526883756
H           -3.89787129967959        4.16206690191542        1.34858050773465
H           -5.23816222916059        3.11612144221481        1.82133927400146
H           -5.53169351798351        4.52369090979347        0.79712109207203
H           -3.15096565401181        4.20851513340997       -1.11474288871903
H           -3.87962539631687        3.08296605377274       -2.26332034966097
H           -4.79751161934271        4.46694213447535       -1.67031542124795
H           -1.13180985632279        2.00663633970490        5.03146031066577
