72
 energy: -99.406621709551 gnorm: 0.004683941588 xtb: 6.6.1 (8d0f1dd)
N           -1.90814567986224        2.80166737873234        2.24157249819869
C           -1.84612408207239        2.12748107084668        1.19240535586086
C           -2.99230110298986        1.91683626155046        0.24165637480600
C           -3.46841996250056        0.47347320110375        0.32468871384713
C           -4.42314091307326        0.00741379761610       -0.58189792417356
C           -4.89837054024413       -1.29208879854551       -0.52916691019602
O           -5.82753204041396       -1.81776184756207       -1.35334386929237
C           -6.46243032893749       -0.98927861834510       -2.29861676044863
C           -4.39427868508544       -2.18240095808293        0.45757415118200
O           -4.90558975118202       -3.42916408523423        0.42754335557298
C           -4.51511911012220       -4.35453096800896        1.41485794668194
C           -3.44637394180186       -1.71437944529932        1.35296775875139
C           -2.99328655991276       -0.40214194921373        1.28839005220085
C           -2.43362741838533        2.19978219349726       -1.17732942407090
C           -1.49025887136121        1.10964404774918       -1.71930225749426
C           -0.15210910663243        1.11167778168783       -1.08628034614649
N            0.51084460720371        0.03353427750140       -0.68482681999559
C            1.89126206785403        0.12326137782401       -0.27581078250548
C            2.85117602721051       -0.34669933640972       -1.38183213974951
C            4.27360053793776       -0.15719497814663       -0.93759610391767
C            4.91268023079486        1.05431116280208       -1.14871659176399
C            6.20951913736942        1.26137974632646       -0.70741838360283
C            6.89370636510999        0.25807349887760       -0.03640327751310
O            8.14830002421174        0.35095957892034        0.44149441408837
C            8.87324321321787        1.54125637878872        0.23260278161414
C            6.24777144313912       -0.99015613633861        0.18406978368716
O            6.98946843716859       -1.90564606333903        0.83874052821830
C            6.45267779686809       -3.18137273649748        1.09453322548798
C            4.95002225626150       -1.17412267092701       -0.26795930776055
C           -0.08134491833303       -1.28315385471102       -0.71832362025284
C           -4.20389371412312        2.85254873305648        0.53199295070736
C           -4.85096727081140        2.52692547838681        1.87618901339757
C           -3.84395851441623        4.33470732008040        0.47607450077563
H           -4.81276385069829        0.67649192697746       -1.33091502404517
H           -6.97088582496838       -0.14825665932631       -1.81765271207597
H           -7.19930029353863       -1.62112152943896       -2.79069957285308
H           -5.75519448641140       -0.61305479511904       -3.04491607897920
H           -4.75615187064075       -3.99476721670792        2.41945045319468
H           -5.08485282120777       -5.25852536164089        1.20905445100195
H           -3.44541973033498       -4.57935887268593        1.35355228012962
H           -3.05899053511446       -2.36174388725228        2.12295687543128
H           -2.27961577135742       -0.06614278455061        2.02478195576017
H           -3.27028201934155        2.29298013818780       -1.86880329798700
H           -1.90697052645540        3.15465736560860       -1.16659341642817
H           -1.97269681683691        0.13712555637278       -1.63859679223437
H           -1.34588231621565        1.32314307826004       -2.78656001525787
H           -0.91942768623843        1.64364720236391        0.82702039258323
H            0.39069385851334        2.04576221557568       -1.07470282578572
H            2.04132589593050       -0.49222448348146        0.61563166023165
H            2.12945065887757        1.15584064447028       -0.01975423346021
H            2.66178713995502        0.24637192338064       -2.27829817728193
H            2.66277761688617       -1.39073770393537       -1.61555943194887
H            4.40126354274917        1.84676032247720       -1.67375804418656
H            6.68063006876697        2.21219669641321       -0.89381756144755
H            8.39520610456793        2.39289148081898        0.72646676534544
H            8.99078745497884        1.75542724268528       -0.83382333441347
H            9.85166624303199        1.36987607959601        0.67678568156838
H            7.23400747085644       -3.72509918107955        1.62234981701989
H            5.56244756402347       -3.12324150629283        1.72903334519488
H            6.20903792443914       -3.70884042004281        0.16714283652431
H            4.45690821915683       -2.12152869863809       -0.11446506057862
H           -0.25933745843828       -1.61028362528718       -1.74467072077504
H           -1.03124101200600       -1.28862027745056       -0.17788314949255
H            0.59264377528303       -1.98978801311593       -0.24113031269444
H           -4.94355294830615        2.65717072946244       -0.25252376765987
H           -4.15152409390786        2.72107635868889        2.68270957425958
H           -5.16140369960321        1.48585527919214        1.92092989429371
H           -5.72793224944135        3.15262524038642        2.01945322919867
H           -3.08099204282936        4.56796067306556        1.21231926340245
H           -3.49496629604012        4.63070339940143       -0.50980694824454
H           -4.72720348566241        4.92448759274884        0.70657300524508
H           -1.06452973750768        2.89958255372579        2.79745495385137
