  72
        -99.27640341
 N         -2.1100772883        2.3959958363        2.7822935200
 C         -2.7215768806        1.7088059776        1.9280142409
 C         -3.2272321861        2.1022797586        0.5352905209
 C         -3.7240913820        0.6477245457        0.4761846802
 C         -4.4019624126        0.0817969947       -0.6169285020
 C         -4.9135496433       -1.1660185693       -0.8517190230
 O         -5.5257062988       -1.4881595568       -2.0111438576
 C         -5.7051112875       -0.5289099648       -3.0305098314
 C         -4.9107196054       -2.3443384771        0.0446699379
 O         -4.3450725077       -2.1955397690        1.2687800153
 C         -4.4630669515       -3.3515034729        2.0755224390
 C         -5.4521581548       -3.4807172841       -0.3633322227
 C         -3.2486403531        0.3675777097        1.7326141766
 C         -2.1427220536        2.4888127931       -0.4779156689
 C         -1.2196816857        1.3569528695       -0.9262301706
 C         -0.2155682832        0.9358341057        0.1526506588
 N          0.6793684654       -0.0818961751       -0.3365293096
 C          2.0876977962        0.0194797379       -0.0619111300
 C          2.9225600789       -0.1255991287       -1.3534831388
 C          4.3852480148       -0.1041228542       -1.0290426886
 C          5.1138555383        1.0775053164       -1.0779594327
 C          6.4574475501        1.1002159569       -0.7425129584
 C          7.1065150376       -0.0613486170       -0.3412781132
 O          8.3991079142       -0.1586778399        0.0076759607
 C          9.2159708678        0.9893100869       -0.0273902907
 C          6.3675815801       -1.2794049710       -0.2833806582
 O          7.0698364482       -2.3553277134        0.1124572908
 C          6.4329131470       -3.6089234050        0.1908008732
 C          5.0236212199       -1.2744717659       -0.6264407096
 C          0.1503808726       -1.4183826623       -0.3432256451
 C         -4.3507627979        3.1578244107        0.5686374919
 C         -5.4630463074        2.7677706256        1.5399532784
 C         -3.7954025897        4.5298367513        0.9437914993
 H         -4.5373433821        0.7955299419       -1.4210454942
 H         -6.3086812129        0.3152944370       -2.6859138760
 H         -6.2389041866       -1.0519404201       -3.8217732401
 H         -4.7477218085       -0.1693122820       -3.4190872962
 H         -4.0119985871       -3.1215323800        3.0373963754
 H         -5.5152974255       -3.6189683937        2.2103871258
 H         -3.9481026361       -4.1981860011        1.6107096126
 H         -5.9489775577       -3.8435054807       -1.2287380176
 H         -3.2660105042       -0.5006539379        2.3611730406
 H         -2.6372478512        2.8906601609       -1.3657074367
 H         -1.5418194235        3.2861855143       -0.0393110775
 H         -1.8137773778        0.4955299455       -1.2348796029
 H         -0.6537658964        1.6958457567       -1.7963297427
 H         -0.7606751927        0.5722997680        1.0343295539
 H          0.3618656858        1.8124165689        0.4514100721
 H          2.4020873058       -0.7585357907        0.6473538128
 H          2.3085875555        0.9908944277        0.3838028237
 H          2.6692133356        0.6935681643       -2.0261748197
 H          2.6622488352       -1.0650062903       -1.8420611577
 H          4.6327793637        1.9919415850       -1.3889389744
 H          6.9972671594        2.0314238891       -0.7972134901
 H          8.8538847187        1.7588503129        0.6608193197
 H          9.2803276052        1.4031571006       -1.0379725362
 H         10.2020259074        0.6555867520        0.2901163781
 H          7.1997935101       -4.3062281142        0.5224569876
 H          5.6150071308       -3.5976586176        0.9179219158
 H          6.0519893856       -3.9261534010       -0.7846788650
 H          4.4567560420       -2.1916878632       -0.5927358254
 H         -0.8706474924       -1.4112650954       -0.7176303790
 H          0.1443435120       -1.8610407453        0.6631175247
 H          0.7524082867       -2.0508239184       -0.9933277125
 H         -4.7806656492        3.2109729243       -0.4399206939
 H         -5.0868694009        2.7496450171        2.5601848979
 H         -5.8728544979        1.7877978283        1.3039780784
 H         -6.2686521601        3.4957637712        1.4877673406
 H         -3.2073866113        4.4530851625        1.8553105998
 H         -3.1687126016        4.9364590104        0.1550738252
 H         -4.6133088811        5.2251658364        1.1150492835
 H         -1.8667607052        1.9742991934        3.6714772517
