  72
        -99.35091127
 N         -1.6983235145        2.4796821978        2.5239552852
 C         -1.6336274118        2.0451683484        1.3523195061
 C         -2.8074311857        1.9883167741        0.4085759492
 C         -3.3864052628        0.5887110195        0.3961224376
 C         -4.3809520509        0.2492285008       -0.4763754084
 C         -4.9667448511       -1.0245219406       -0.5033368521
 O         -5.9645964120       -1.4010062632       -1.3065297366
 C         -6.5668362633       -0.4713988324       -2.1793541236
 C         -4.4878269324       -2.0454924232        0.3949901993
 O         -5.1012103675       -3.2376340499        0.2479121040
 C         -4.7462162632       -4.2946372468        1.1098258916
 C         -3.5084091011       -1.7511468553        1.2833770629
 C         -2.8925932608       -0.4027547216        1.3905902626
 C         -2.2771306598        2.3637544096       -1.0024564354
 C         -1.4574736318        1.2699546946       -1.7112617983
 C         -0.0905843282        1.0902169694       -1.1524325663
 N          0.4629362227       -0.0680314523       -0.8088634843
 C          1.8580451168       -0.0204943853       -0.3777872773
 C          2.8156425330       -0.2201877517       -1.5621077301
 C          4.2374495373       -0.1432056528       -1.0775337138
 C          4.9460554912        1.0452127849       -1.1379578851
 C          6.2415573093        1.1252624230       -0.6499173508
 C          6.8529342409        0.0160939288       -0.0835590443
 O          8.0974369425       -0.0203852011        0.4276550085
 C          8.8855015772        1.1475001377        0.4044280484
 C          6.1341257828       -1.2100275113       -0.0196468059
 O          6.8030106882       -2.2377970022        0.5401862932
 C          6.1807188462       -3.4969314544        0.6313398906
 C          4.8409954753       -1.2655011292       -0.5145973472
 C         -0.1078049752       -1.2651597858       -0.8275164632
 C         -3.9447624247        2.9872632879        0.8091611501
 C         -4.6441798813        2.5720775864        2.1013922164
 C         -3.4497016443        4.4252123781        0.9350283012
 H         -4.7434262719        0.9883324193       -1.1728075036
 H         -6.9833350687        0.3789504856       -1.6319254718
 H         -7.3730153742       -1.0133860583       -2.6703455058
 H         -5.8608070804       -0.1138492365       -2.9347414433
 H         -4.9196042678       -4.0311172808        2.1569943622
 H         -5.3914469694       -5.1260844953        0.8339624890
 H         -3.6999580065       -4.5856555561        0.9732933890
 H         -3.1440656197       -2.4923475051        1.9759436114
 H         -3.0887295505       -0.0039699343        2.3992895404
 H         -3.1267153920        2.6104798379       -1.6385828685
 H         -1.6627825163        3.2603366223       -0.9146478814
 H         -2.0157985329        0.3360046741       -1.6992448102
 H         -1.3582362443        1.5825048864       -2.7579862290
 H         -0.7041146437        1.6770583374        0.8850985881
 H          0.5514949700        1.9558523335       -1.1326647783
 H          2.0283464536       -0.8040871417        0.3626331052
 H          2.0623206381        0.9448221954        0.0902524632
 H          2.6323304001        0.5547753524       -2.3079330786
 H          2.6219526847       -1.1914259132       -2.0206932194
 H          4.4953033126        1.9219390184       -1.5774478309
 H          6.7700783297        2.0618831242       -0.7178758895
 H          8.4188804607        1.9570905738        0.9738856401
 H          9.0749478433        1.4824374039       -0.6197733777
 H          9.8279568237        0.8727735337        0.8743015928
 H          6.9132490022       -4.1517024870        1.0992653414
 H          5.2822849688       -3.4561230475        1.2557407452
 H          5.9230901212       -3.8902342378       -0.3569036667
 H          4.2898760643       -2.1921709821       -0.4785349802
 H         -1.1048787574       -1.4017201105       -1.1909673313
 H         -1.7981131282       -0.4904831604        1.3401157682
 H          0.4556385898       -2.1169098988       -0.5077733429
 H         -4.6835204512        2.9545561904        0.0008574236
 H         -3.9355102627        2.5686525616        2.9232458850
 H         -5.0952726285        1.5868809686        2.0092409567
 H         -5.4320807642        3.2851728235        2.3296415918
 H         -2.7169966126        4.5064309859        1.7320106663
 H         -3.0127482149        4.7876711064        0.0087047427
 H         -4.2891145717        5.0703203314        1.1812039296
 H         -0.8384856918        2.4935704701        3.0641482226
