72
 energy: 0.000000000000 xtb: 6.6.1 (8d0f1dd)
N           -1.48000293779575        2.76476268387158        2.24628109506406
C           -1.54685765982728        2.13713026845864        1.16786442479633
C           -2.71664555542709        2.04066465233915        0.25542126551673
C           -3.29536485282153        0.63313943585186        0.33726451995763
C           -4.28410301577201        0.23586992165681       -0.56967802445358
C           -4.84281969287325       -1.02713009134982       -0.52336153954382
O           -5.80723851421051       -1.49412389977704       -1.35551776709728
C           -6.37302394889628       -0.61433374035075       -2.29878131975283
C           -4.40252873976594       -1.94761189088254        0.45892611020286
O           -5.00262966939113       -3.16552453377599        0.42619213417906
C           -4.68452343744081       -4.09956512674531        1.42848526074195
C           -3.42742837255021       -1.54864441185834        1.35112107754960
C           -2.88374382291407       -0.27026348076763        1.29138044350984
C           -2.12960178133303        2.29312390693752       -1.15501756269928
C           -1.26769608313695        1.16488954815628       -1.68268940290229
C           -0.01594369432711        1.11120640386907       -0.96210170502032
N            0.61573556717347       -0.05820917143137       -0.56681418995745
C            1.97900178769529       -0.03608247241449       -0.15946113370561
C            2.91389136687132       -0.51253796462142       -1.28919093948877
C            4.34053057150314       -0.41036479399555       -0.84636566442052
C            5.05440749840664        0.75731258250670       -1.03704815137670
C            6.36594458393942        0.86318146242635       -0.59454186738416
C            6.97836728951976       -0.19262835314200        0.05875594154514
O            8.24843923705121       -0.19608545529978        0.52849229336888
C            9.04948857099834        0.94118946386124        0.32577075867351
C            6.24924682629257       -1.38712509500743        0.27368075433074
O            6.92516865464341       -2.36906412985634        0.91681109300008
C            6.29044974418075       -3.60368786341049        1.13446708221037
C            4.94451647128166       -1.47509272837461       -0.17456144666944
C           -0.06450852390110       -1.31659895911996       -0.62272489826297
C           -3.83842283306636        3.06699211700473        0.56714363865223
C           -4.48469325537512        2.77398678700600        1.91757832661317
C           -3.35383256445174        4.51433141175875        0.53788597761160
H           -4.63238346384713        0.93488297556736       -1.31584713915446
H           -6.82364044161385        0.25933873988237       -1.81623617481282
H           -7.14887281320383       -1.18877761173188       -2.80114968989819
H           -5.63647019167188       -0.28306387485673       -3.03761820629864
H           -4.90510392430434       -3.70945248706200        2.42777365229088
H           -5.31666111602218       -4.96338687512051        1.23059216015041
H           -3.63330963874216       -4.40213139713298        1.37988109071612
H           -3.08273756135797       -2.22451753843098        2.12091920156464
H           -2.13899353525497        0.00648046278637        2.02486451926034
H           -2.92900348904011        2.46662001655020       -1.85904889403852
H           -1.52363271007050        3.20243373865041       -1.12377016752547
H           -1.82007678186691        0.22309005295663       -1.64668726059246
H           -1.02484355859463        1.37315230440271       -2.73337052914938
H           -0.66683645136348        1.62358125241989        0.67777995290742
H            0.63979150271165        1.97534042352271       -1.00279841819540
H            2.09992345445363       -0.67684822958099        0.71880353033950
H            2.27062170568353        0.98788730352665        0.11174599033264
H            2.74559190745931        0.09949210768517       -2.16796815448637
H            2.66483337918956       -1.54892234203886       -1.53393370887153
H            4.60110541541708        1.58999821475586       -1.54899719434958
H            6.90436214376046        1.77954837427275       -0.77488201422708
H            8.63277570017171        1.81889442971142        0.82838878011096
H            9.17999540673028        1.15858935105381       -0.73991163660101
H           10.01568469809429        0.70041589907515        0.76441837347324
H            7.02840445289603       -4.22914000368856        1.63405212130657
H            5.41323055343814       -3.49771796437669        1.78100014624666
H            5.99548179872051       -4.07768165968788        0.19317327117694
H            4.37972549192735       -2.38235396604817       -0.02085715943803
H           -0.21784880604690       -1.63799081171692       -1.65674359061123
H           -1.04140602429915       -1.25038657498569       -0.13319937094181
H            0.53622828081311       -2.06043054351857       -0.10782721861839
H           -4.60010176119873        2.94952877983562       -0.21215199254833
H           -3.75569290438413        2.89864737280330        2.71768222940332
H           -4.87133141546931        1.75812666844805        1.95096953262350
H           -5.30779027760608        3.46421705458541        2.08566314828841
H           -2.57600690611557        4.67149551240710        1.27380525400288
H           -2.98568387879941        4.79735072858547       -0.44306873606406
H           -4.18246320999802        5.17549387767963        0.78028909550558
H           -0.60348306823675        2.77113136414764        2.76038943619666
