  72
        -99.38885406
 N         -1.4674250521        2.5406479300        2.3546892941
 C         -1.5762734012        1.7370889479        1.4025171783
 C         -2.6676785493        1.7987900278        0.3692397111
 C         -3.4667218974        0.5099179889        0.3964285997
 C         -4.3279522235        0.2021303928       -0.6573675761
 C         -5.0838841163       -0.9595753701       -0.6588517911
 O         -5.9190721844       -1.3434273911       -1.6428035831
 C         -6.0596915212       -0.5334934125       -2.7861218108
 C         -4.9977917545       -1.8530412537        0.4463732164
 O         -5.7675598724       -2.9522965947        0.3613678176
 C         -5.7768232569       -3.8730661764        1.4280518357
 C         -4.1515353196       -1.5310661084        1.4979347093
 C         -3.3972080255       -0.3672468519        1.4709616414
 C         -1.9428311749        1.9838958112       -0.9972144501
 C         -1.3965572102        0.7279308232       -1.6939303455
 C          0.0718436965        0.3716741532       -1.4272084552
 N          0.3324943376       -0.1576486573       -0.1030719134
 C          1.6530666289        0.1092297235        0.4344963059
 C          2.7704382384       -0.7410952798       -0.0840194927
 C          4.1136050674       -0.4072111793       -0.0768812887
 C          4.6013022007        0.8684298062        0.3183326631
 C          5.9405821101        1.1625696755        0.2851932168
 C          6.8818658596        0.2155465448       -0.1292827570
 O          8.1997215515        0.4095212471       -0.2068893858
 C          8.7484644088        1.6594585715        0.1501154404
 C          6.4264364151       -1.0877960566       -0.5134474386
 O          7.4040361422       -1.9356498786       -0.8845659289
 C          7.0653953319       -3.2426017615       -1.2891822717
 C          5.0847745476       -1.3728930711       -0.4816396028
 C         -0.1644813570       -1.4963337750        0.1172144822
 C         -3.6643320083        2.9758490068        0.5953105786
 C         -4.4216696833        2.8293982849        1.9127408870
 C         -2.9993456708        4.3480893183        0.5384934637
 H         -4.4051278307        0.8828374419       -1.4888062618
 H         -6.4663170121        0.4505526872       -2.5339232818
 H         -6.7620479820       -1.0581685671       -3.4308538395
 H         -5.1067388851       -0.4128478272       -3.3113020058
 H         -6.1147588073       -3.4053085992        2.3574231735
 H         -6.4819081268       -4.6493546511        1.1372881962
 H         -4.7891204179       -4.3189090061        1.5809384713
 H         -4.0743480560       -2.1836744251        2.3523272595
 H         -2.7635494322       -0.1408024599        2.3141106229
 H         -2.6563497932        2.4529333319       -1.6758165833
 H         -1.1268631015        2.6943647079       -0.8554565248
 H         -2.0253827304       -0.1337440320       -1.4749158776
 H         -1.4603314106        0.9037888434       -2.7703432396
 H         -0.8553756187        0.9375265901        1.1866136369
 H          0.6837297639        1.2660137309       -1.5645992570
 H          1.5925098441       -0.0469266829        1.5238151299
 H          1.8669818503        1.1693611477        0.2752437449
 H          0.3615321123       -0.3563980686       -2.2012799901
 H          2.4965673665       -1.7296901800       -0.4203213853
 H          3.9104692920        1.6290243093        0.6436040171
 H          6.2689692239        2.1460397541        0.5823349373
 H          8.5402118082        1.9027756981        1.1959119328
 H          8.3719873735        2.4584342610       -0.4950290133
 H          9.8228913705        1.5577118109        0.0099196342
 H          8.0038593738       -3.7100560153       -1.5801946561
 H          6.6159157351       -3.8098201233       -0.4683858670
 H          6.3840047088       -3.2332251696       -2.1450915917
 H          4.7303545219       -2.3513248120       -0.7645001856
 H          0.2184954817       -2.2169609974       -0.6163695020
 H         -1.2525964942       -1.4956862983        0.0520231319
 H          0.1180482329       -1.8278295524        1.1146959287
 H         -4.3965988927        2.9176037628       -0.2191508164
 H         -3.7331050413        2.9075565366        2.7488663287
 H         -4.9387084939        1.8743185258        1.9677172083
 H         -5.1597710851        3.6226456490        1.9997051232
 H         -2.2429454366        4.4290690903        1.3134241708
 H         -2.5427666247        4.5402599468       -0.4284991144
 H         -3.7489058885        5.1159723217        0.7129846014
 H         -0.6750165757        2.4427889899        2.9809561225
