72
 energy: 30.781470467491 xtb: 6.6.1 (8d0f1dd)
N           -1.57080038200382        3.26845115260483        2.19894897173575
C           -1.60430483815052        2.39733462987199        1.29710625582612
C           -2.76674023052064        2.22183545136316        0.35620983718254
C           -3.21739497666541        0.76968192655555        0.36504096932219
C           -4.05886921406499        0.28586756125490       -0.64014971765819
C           -4.49342770605876       -1.02591015173109       -0.64406148220969
O           -5.31361424551419       -1.58384931300456       -1.57849710307977
C           -5.81133827260910       -0.78386473819910       -2.61935293820876
C           -4.07809241956609       -1.90393186410210        0.38307096883315
O           -4.53446191865644       -3.18049661625723        0.28181671975777
C           -4.06649506750805       -4.12836392305924        1.20608021259264
C           -3.27376706307463       -1.41304265006481        1.39520505005920
C           -2.85542523608344       -0.08886875692426        1.38618399691722
C           -2.22951783565746        2.61668466355536       -1.04664070720194
C           -1.28577409405532        1.60150401402924       -1.70286995710383
C            0.08762856450530        1.57417442503361       -1.12246961088362
N            0.65654560831438        0.49180509607667       -0.84043367657967
C            2.00567223177544        0.46603815416633       -0.36588350765035
C            2.89271038482043       -0.23024342290137       -1.41321112582909
C            4.32193384236858       -0.27349868509869       -0.95800464133577
C            5.17624186451379        0.78219629230024       -1.21448356726693
C            6.48991462596788        0.76320306919821       -0.76482842934658
C            6.96855489870830       -0.31850721101121       -0.04850516373350
O            8.23282514857109       -0.44773165995830        0.44449388423214
C            9.16222257287772        0.57613131294717        0.20008615627404
C            6.10567608850606       -1.40728891543796        0.21435527582408
O            6.66835396743329       -2.43293376102983        0.91292031329804
C            5.88627857183058       -3.56126631880783        1.20888946226557
C            4.79938727182116       -1.36716045527867       -0.23755591741229
C           -0.99338820628629       -3.21023641191176        0.15443331090308
C           -3.99800873325034        3.10171420334858        0.71789157011096
C           -4.53882169456914        2.75412899038146        2.10434537121924
C           -3.72246616387614        4.60259746525301        0.64144865322070
H           -4.37535584742190        0.94832467718566       -1.42977545072616
H           -6.40819280410092        0.05271990051470       -2.24020234954616
H           -6.45087556120599       -1.44126006438722       -3.20727525843087
H           -5.00847909013370       -0.39901374173977       -3.25766464568870
H           -4.39035522846696       -3.89608126063311        2.22631020024053
H           -4.50086284630482       -5.07848935231124        0.89828949852525
H           -2.97069286563867       -4.19255610889018        1.17344940553759
H           -2.96684393340388       -2.04901438489756        2.20956261575174
H           -2.24727723398702        0.26577604237049        2.20401528313241
H           -3.08366511197757        2.76780633815816       -1.70894017328734
H           -1.70980864815750        3.57336179974460       -0.96052262416277
H           -1.70201470444091        0.59467264730046       -1.67177657309679
H           -1.17192652218935        1.89046939326197       -2.75390811328073
H           -0.77585722792123        1.71090238262916        1.07567494658422
H            0.57477690831274        2.55777102742387       -0.99992316144935
H            2.02234531428933       -0.12027466533398        0.55827402321228
H            2.40604377781835        1.47309758795696       -0.15553683919410
H            2.81552710234463        0.32483010534612       -2.35058325415532
H            2.50427052290989       -1.23586501114574       -1.57763555925625
H            4.82528714216280        1.63478022458654       -1.77715196133610
H            7.13097073521974        1.60269157070724       -0.98427744071134
H            8.85116706968376        1.52539865364014        0.64980884051194
H            9.33306363944481        0.72198541566481       -0.87198146952869
H           10.08757306225187        0.24395094149086        0.66895336178958
H            6.54543102428033       -4.23441643806485        1.75558517635646
H            5.02781380160099       -3.30617542676397        1.83946355311770
H            5.53344277275882       -4.06126142699103        0.30047750331026
H            4.12998955354745       -2.19148804129144       -0.04475338078988
H           -1.31861741475296       -3.76429165919986       -0.69980563078887
H           -0.87112892983134       -2.15025004734475        0.08386886406814
H           -0.63538792486425       -3.73102151814573        1.01722317863405
H           -4.77714637157469        2.86038715047851       -0.01589899251870
H           -3.80297936586742        3.00617976409750        2.86115014393630
H           -4.77424782789124        1.69505353556133        2.17777591955074
H           -5.44561993016316        3.32211325692769        2.29902341369150
H           -2.91484195249149        4.86465977310732        1.31661244052015
H           -3.46467256545232        4.91566236563090       -0.36681801551426
H           -4.61533706994239        5.14625907678286        0.94199620474467
H           -0.71485359944511        3.31574280036213        2.74782321430999
