72
 energy: 32.582522755205 xtb: 6.6.1 (8d0f1dd)
N           -1.55794775444459        3.32261462075312        2.16058607374155
C           -1.60072731963313        2.40448338166778        1.30669377361254
C           -2.77011929026451        2.22680879634137        0.37266634490130
C           -3.22395594307998        0.77638571669614        0.38059576791036
C           -4.04803877558756        0.28580283912783       -0.63563204313748
C           -4.46434373082959       -1.03143520717050       -0.64923309113830
O           -5.26517414220699       -1.59866361199962       -1.59946091598408
C           -5.75102354676736       -0.80168330220473       -2.64778088213337
C           -4.05827937770710       -1.90199135173160        0.38486295259396
O           -4.48963949483707       -3.19106028252358        0.27158918692361
C           -4.00652240923060       -4.13173022151503        1.19489221831615
C           -3.27979616220192       -1.40494860996328        1.41306637182846
C           -2.86988535526651       -0.07870950246946        1.40639722305165
C           -2.22215318774067        2.60505274780334       -1.03026380473981
C           -1.30669012075922        1.57070158630043       -1.68581922365830
C            0.06152409066836        1.51748857221333       -1.10171158118368
N            0.60063907887909        0.42473197082974       -0.79480144291755
C            1.96386347629114        0.40749607724000       -0.35215606644740
C            2.86662321076083       -0.24449327161126       -1.41910555345544
C            4.29712298328393       -0.27176617188884       -0.95800015528974
C            5.16106915747821        0.77459478134262       -1.22372351666387
C            6.47873709475097        0.74873055688532       -0.77956380099044
C            6.95630050589823       -0.32991909749437       -0.05674129394722
O            8.22484844225669       -0.46610431144842        0.43318451408100
C            9.16505136607795        0.54498927215250        0.18294294053894
C            6.08497036832548       -1.40894615690285        0.21521397610650
O            6.64300788253358       -2.44143245075563        0.91241239498557
C            5.84357148096055       -3.55559219417551        1.21818383052384
C            4.77736883005055       -1.36341262550557       -0.23420940082257
C           -0.79062387871537       -3.09951054535892        0.11287209077280
C           -4.00430094392030        3.10359678194654        0.72688081869093
C           -4.54082772540512        2.75727736062859        2.11653204479800
C           -3.74748968236032        4.60863271963175        0.64143319742354
H           -4.36126177352684        0.94545998551368       -1.42928976832703
H           -6.36211426571204        0.02942783564772       -2.27864415709664
H           -6.37461235781160       -1.46641390964305       -3.24374027036030
H           -4.94278894456494       -0.41199833960644       -3.27643623975580
H           -4.34601162510198       -3.91386515716332        2.21316879366164
H           -4.42000968035882       -5.08704266646169        0.87668283414107
H           -2.90970884399095       -4.18418582687025        1.17541304806617
H           -2.97266646224211       -2.04037576831402        2.22741172816714
H           -2.26847417845107        0.28045088946783        2.22686339163317
H           -3.06532899339323        2.77867818102697       -1.69512705433796
H           -1.68003042122633        3.55027183117542       -0.95104875869051
H           -1.74545363899988        0.57732638416843       -1.68330803964607
H           -1.13965230122791        1.87517135015456       -2.71852512579145
H           -0.78012670670630        1.70641797680372        1.10395303327544
H            0.57388326060236        2.49862446191868       -1.01052753705870
H            2.01035108603780       -0.19204710281961        0.55947788901838
H            2.34470861276241        1.42310737628784       -0.14141189863881
H            2.78600945635195        0.33362367875091       -2.34206878453772
H            2.50879202585018       -1.25573431784842       -1.61367283298989
H            4.82481420533669        1.62595245555633       -1.79779059480387
H            7.12471962836607        1.58298399157426       -1.00693043848310
H            8.86739858172305        1.50078368116611        0.62781215159182
H            9.34268874330712        0.68112496798608       -0.88944041262690
H           10.08517511290989        0.20272884712292        0.65548768238246
H            6.49432710277864       -4.23249505281258        1.77044710248339
H            4.98819846030715       -3.28326954063572        1.84655459564965
H            5.48394869722722       -4.05756953409389        0.31349076721258
H            4.10542831589335       -2.18460248793935       -0.03872938067054
H           -1.12364845144910       -3.60531706162375       -0.74698540495978
H           -1.01499161992881       -2.08293596681398        0.13959727979819
H           -0.43945098267526       -3.57237516840685        0.99069719847861
H           -4.78456733769771        2.84881945721833       -0.00207724663631
H           -3.80626138808137        3.01828021208541        2.87102937874902
H           -4.76632112177309        1.69665498508171        2.19510844232209
H           -5.45334694470969        3.31566754141137        2.30972142975501
H           -2.94106156482095        4.88395359843631        1.31200867737108
H           -3.50061412850473        4.92279619286134       -0.36904664089962
H           -4.64563300672986        5.14282968150501        0.94437866487410
H           -0.70420189875451        3.36395925169556        2.71599016035408
