72
 energy: -5.870262516295 xtb: 6.6.1 (8d0f1dd)
N           -1.50131309578506        2.80385840607745        2.23973370266534
C           -1.55469012200206        2.16358081878320        1.16085972659255
C           -2.74739716366730        2.06787464616722        0.25131670055319
C           -3.31138785076381        0.65525685816696        0.32879385647119
C           -4.29115765664794        0.24868787282724       -0.57867775594261
C           -4.82950277606368       -1.02267060744732       -0.53685307790169
O           -5.79057003664236       -1.49640203522228       -1.37847315973972
C           -6.36373556378533       -0.61930405840994       -2.31368738976024
C           -4.38099712813355       -1.94014939226262        0.43926826138492
O           -4.96514639195429       -3.17025304952208        0.40071005055172
C           -4.63072212564169       -4.10226976826694        1.39626204625764
C           -3.41516745361296       -1.53539252301610        1.33968512100838
C           -2.88663288118226       -0.25038643413020        1.28349857925231
C           -2.19701845684291        2.31618260937657       -1.17788736859641
C           -1.26818457882405        1.19454571550414       -1.67617410824031
C           -0.00211571705404        1.11989094657070       -0.90877964042379
N            0.61333517204155       -0.07957843588434       -0.56988418365836
C            1.98871884848439       -0.02732169802993       -0.17616233432271
C            2.93214762962246       -0.52718802928434       -1.29000848777542
C            4.35678017033132       -0.42596461763336       -0.84626726766631
C            5.08102163246306        0.73336903172995       -1.05123794169018
C            6.39297052361714        0.83747287455391       -0.61222584447371
C            6.99630861951212       -0.21625341164440        0.05043409853022
O            8.27517825285124       -0.22614306882320        0.52265144730861
C            9.07504934611717        0.90866406425688        0.31270761747347
C            6.26060955381045       -1.40149779720574        0.27615535617959
O            6.93648241906882       -2.38680191467797        0.93119719859149
C            6.29160157557706       -3.61274903180561        1.15580599035229
C            4.95615529136364       -1.48745297588624       -0.16881355513247
C           -0.07646700470355       -1.35260587018815       -0.57321717366721
C           -3.87735127996975        3.07852138220173        0.58979565513841
C           -4.49867850510284        2.77508002301257        1.95204156381593
C           -3.41208709096300        4.53304920703003        0.55332875665815
H           -4.64395131249777        0.94518037277370       -1.32145470400139
H           -6.82470797085366        0.24745067557808       -1.82804681724311
H           -7.13437068936491       -1.19944917026125       -2.81898898329591
H           -5.63103230840500       -0.27573160457146       -3.05192517997244
H           -4.85620883721649       -3.72355303973941        2.39890583454963
H           -5.24827971673447       -4.97590711958233        1.19411156176016
H           -3.57475304511150       -4.38825685030951        1.34588684812636
H           -3.06337039383176       -2.20942565912931        2.10473389581095
H           -2.15067346486538        0.03858415147474        2.01823171931698
H           -3.02956281163259        2.40623082538149       -1.87701704406051
H           -1.65206536854454        3.26195419867399       -1.18801724731190
H           -1.80491834995939        0.25081906100217       -1.63567639419774
H           -1.02487158945727        1.40034903960632       -2.72730138831604
H           -0.68968153816679        1.65378156123500        0.66854809702654
H            0.64858215795398        1.98105464129851       -0.97019122023653
H            2.12803021807765       -0.63838445438992        0.72234147990193
H            2.27481363232466        0.99989539463591        0.07591584826572
H            2.76612628305634        0.08292310469381       -2.17938012843539
H            2.67213000234768       -1.55893639615080       -1.52450447914165
H            4.63209526132590        1.56575291266167       -1.57296259069078
H            6.93682288566915        1.74926378706750       -0.80089972910839
H            8.66165704257027        1.79441674953173        0.80726308287248
H            9.20854232191235        1.11798594053126       -0.75422958578039
H           10.04027108395490        0.66747932827338        0.75537165195345
H            7.02637106555459       -4.23885150722091        1.65987433562261
H            5.41417688332730       -3.49701013130651        1.80105393111255
H            5.99282380340320       -4.09176124205655        0.21705280996849
H            4.38611888130348       -2.38952310808605       -0.00788194343517
H           -0.26217564674710       -1.71322755475968       -1.59470092749593
H           -1.04016711013357       -1.27988856647581       -0.06454638859331
H            0.51489414565468       -2.10493297913694       -0.05518845422858
H           -4.65330007609812        2.95334393187156       -0.17493530009691
H           -3.75985649720524        2.91110675751545        2.73598322301413
H           -4.86954482931775        1.75353763348845        1.99028090119478
H           -5.33020444981043        3.45190328872746        2.13368667137548
H           -2.61831762859625        4.69462994764800        1.27563260347077
H           -3.06245951901621        4.82106156817415       -0.43460836704380
H           -4.24509267317401        5.18228564241403        0.81337281171123
H           -0.60880634404393        2.80596663330373        2.73044726067751
