72
 energy: 33.654003612883 xtb: 6.6.1 (8d0f1dd)
N           -1.54322249263908        3.33688989036447        2.14397261413097
C           -1.59909521648644        2.40343237726277        1.31014877782188
C           -2.76899857179331        2.22406470322548        0.37378849456804
C           -3.22845941340579        0.77599635695373        0.38574590205489
C           -4.05738400789524        0.28866078984282       -0.63011230591378
C           -4.47673631797953       -1.02629232783125       -0.64067657709527
O           -5.26837151366600       -1.59533989905829       -1.59694432327451
C           -5.77973016186524       -0.79452941434987       -2.63417263202582
C           -4.06785698012764       -1.89921698753951        0.39315744709816
O           -4.48869615390675       -3.18888966593655        0.26871479256400
C           -4.02972420093881       -4.13328846961518        1.20313714839591
C           -3.28783990268283       -1.40216974567370        1.41931203766576
C           -2.87787409137482       -0.07576646407833        1.41511213496693
C           -2.21761219014974        2.59664782643996       -1.02671028739825
C           -1.31596025374786        1.55210003127971       -1.67916566434434
C            0.04755010411082        1.47575728572557       -1.09371862848148
N            0.57586910404402        0.37857380480197       -0.78302533342572
C            1.94533879895859        0.37840239779753       -0.34956216062208
C            2.85903833804187       -0.25426640599095       -1.42121108745742
C            4.28891249101476       -0.27221276990733       -0.95691210441646
C            5.15573819049557        0.77212841047665       -1.22518877412483
C            6.47481541980768        0.74441065446310       -0.78553225237323
C            6.95473853636611       -0.33030485407747       -0.06060936414740
O            8.22625726776057       -0.46389775693663        0.42787481104626
C            9.16363826262353        0.55919962382963        0.18778531508114
C            6.08368289412226       -1.40690939568961        0.21283120788640
O            6.64386581887326       -2.43448755559306        0.91749384943714
C            5.85994775303990       -3.55900476852104        1.21891142503776
C            4.77634189554968       -1.36101394485242       -0.23332989255064
C           -0.73236519929639       -3.00874592457450        0.10971985127726
C           -4.00388524061892        3.10552394713263        0.72377163458855
C           -4.54260206841239        2.76169660657344        2.11248789375973
C           -3.73413376752480        4.60619657234313        0.63626476708408
H           -4.37423962357236        0.94659413533715       -1.42381598476303
H           -6.38532093191494        0.03774032079805       -2.25771609769226
H           -6.41331088004986       -1.45335316598324       -3.22744138921768
H           -4.97757467470976       -0.40449848116420       -3.26697191601137
H           -4.36657858697493       -3.90385973905338        2.22002997635601
H           -4.45542108155822       -5.08639989950673        0.89211648233568
H           -2.93766146905524       -4.19595042337320        1.18363979506320
H           -2.97436281430896       -2.03831357532070        2.23107283536504
H           -2.27873230248332        0.28186221690834        2.23890400793362
H           -3.06113702808733        2.77413055384968       -1.69262019341364
H           -1.66532979973165        3.53614520085222       -0.94850694868543
H           -1.77396111365010        0.56898362690379       -1.69598889702125
H           -1.12449874487268        1.86601267349793       -2.70195005616772
H           -0.79381498795653        1.68252831852903        1.12341258074488
H            0.57304781275429        2.45228264100815       -1.01092888312024
H            2.01151493108307       -0.21891722137402        0.56356871370374
H            2.30806578059622        1.40164642749602       -0.14193849264673
H            2.77256612514376        0.33601548451058       -2.33658792950680
H            2.51556216294612       -1.26645399046944       -1.63138340722455
H            4.82143251061225        1.62658500579533       -1.79421559225008
H            7.12268508394365        1.57791129057770       -1.01079098698672
H            8.85814068843040        1.51280797061653        0.63550764976003
H            9.33986961859740        0.70273055211344       -0.88322471482416
H           10.08786204648393        0.22506566361497        0.65940507853048
H            6.51507337100523       -4.23360129981399        1.76931225622704
H            5.00556472358852       -3.29372475090265        1.84809670319045
H            5.50810983438107       -4.05998758131723        0.31151009838088
H            4.11654654232912       -2.19125549354279       -0.03785180278210
H           -1.05880432177392       -3.51111930958160       -0.75156495805831
H           -1.03999952767576       -2.01789604098910        0.16975144943396
H           -0.38168141602880       -3.47768018832444        0.99159505623350
H           -4.78245942042516        2.85166875222827       -0.00761875711636
H           -3.81334126534573        3.02262765326677        2.87383947544858
H           -4.77338364053241        1.70133878586325        2.19008280773853
H           -5.45253360559181        3.32595662783578        2.30320895598665
H           -2.92991384956799        4.88086010973012        1.30960530075888
H           -3.48182209513409        4.91795246025945       -0.37364649485158
H           -4.62761393029710        5.14913946073456        0.93648614405724
H           -0.71258026326614        3.38829100812104        2.72744436007204
