72
 energy: 7.595693120870 xtb: 6.6.1 (8d0f1dd)
N           -1.53537569522902        2.94958463281996        2.24157895287696
C           -1.57130224440549        2.22842617808267        1.21327148069133
C           -2.75222607064612        2.10356987078471        0.28278008171044
C           -3.29607134586809        0.68563920647766        0.34421435320842
C           -4.24222736131693        0.25913006295186       -0.58833904544048
C           -4.75190351577361       -1.02434627899463       -0.56179871253214
O           -5.67522667647049       -1.52283386038461       -1.43336579323952
C           -6.23494120105964       -0.65829845251636       -2.38784190063145
C           -4.31195966725808       -1.93124297939888        0.42625166140481
O           -4.85807073081039       -3.17966152094609        0.36541919198068
C           -4.49813137011502       -4.11126063437143        1.35090161271054
C           -3.38770971223572       -1.50333730329989        1.35840719637254
C           -2.88686062814949       -0.20691938503159        1.31585257091269
C           -2.20083946759303        2.37440416189135       -1.14337301320634
C           -1.30227580782973        1.25384744524173       -1.71474194757351
C           -0.04131083016872        1.02073146928874       -1.00236657172435
N            0.52315504804802       -0.24609422809304       -0.64202677714589
C            1.91657920015040       -0.01873406656281       -0.24372370501991
C            2.91497598547980       -0.47539844084608       -1.33271621618995
C            4.34256284293612       -0.39249093049328       -0.87906581162881
C            5.10122107810140        0.74351893758149       -1.09058771283333
C            6.41694890106271        0.81894440984830       -0.65063878296311
C            6.99160132774437       -0.24429934764713        0.02222472871859
O            8.27018742454941       -0.28470817120473        0.50264451721849
C            9.09770605489389        0.82974772426809        0.28600547656344
C            6.22153097676791       -1.40359567485875        0.25903225253444
O            6.87041234608389       -2.39795465418726        0.93134096633247
C            6.19579723765961       -3.60267351026719        1.17166895256822
C            4.91788344746183       -1.46078508994685       -0.19168444634197
C           -0.19577671564915       -1.57695189022884       -0.39400261851542
C           -3.91083179753508        3.08427767968809        0.61807969574809
C           -4.51188035388838        2.77399958980935        1.98811798423109
C           -3.48568123823499        4.55013671271884        0.57177471749486
H           -4.58565456022931        0.94543511746766       -1.34457481999837
H           -6.72580985117877        0.20327728795867       -1.92241686987104
H           -6.97751169295802       -1.25297700170061       -2.91791291826344
H           -5.48383669914495       -0.30275470430635       -3.10039841301134
H           -4.74799923931340       -3.76021259535242        2.35809492425363
H           -5.07302997450400       -5.00878729206218        1.12842970937311
H           -3.43102553762333       -4.34851178463919        1.30818154933408
H           -3.03974176683846       -2.17033771999209        2.13113101370476
H           -2.17324702615468        0.10064283118758        2.06477807041519
H           -3.04155281551088        2.49120603423011       -1.83251398528684
H           -1.64921652864898        3.31675159092041       -1.12977021238454
H           -1.84686565103737        0.32815216193979       -1.71234596668946
H           -1.09109184133573        1.50931189680904       -2.76467419679655
H           -0.71737918949352        1.65554513120522        0.79755862421931
H            0.59136367614283        1.90660269284771       -0.95086907697622
H            2.14684342512187       -0.54311339494297        0.69102972864226
H            2.14806963106130        1.04377928922292       -0.04316764314371
H            2.76444794697308        0.14341478410408       -2.21699498327467
H            2.64924964325409       -1.49887013526876       -1.58254578680787
H            4.67525772389741        1.58236591402904       -1.62107912414661
H            6.98524052123667        1.71584682534398       -0.84365332150317
H            8.70444568007392        1.73127584426348        0.76889653858434
H            9.23898583223047        1.02546399098286       -0.78273148408886
H           10.05624195665979        0.57028468444046        0.73385458095583
H            6.91334795885509       -4.24105801196844        1.68603160651157
H            5.32186280608014       -3.45351966352675        1.81311404281204
H            5.88580545292148       -4.08593517774765        0.23894628920584
H            4.32658585215824       -2.34635431217502       -0.01987952669145
H           -0.41563002621981       -2.07672288053024       -1.35720292582979
H           -1.15041817721411       -1.42112504468310        0.10490903923667
H            0.32641570321308       -2.31347049026735        0.22433428872768
H           -4.68998548174755        2.93521405297107       -0.14034573555910
H           -3.76810645024386        2.94226655150272        2.76323767931156
H           -4.85119062348867        1.74143835068231        2.03703878325582
H           -5.36053254783815        3.42886663573993        2.17262167018335
H           -2.69001907660319        4.72804464413113        1.28560840884443
H           -3.15533558376624        4.84160105883163       -0.42087623933384
H           -4.33013012455930        5.18079037158018        0.84121532852134
H           -0.64415613681324        2.96498626993629        2.73082012206872
