72
 energy: 40.159193523812 xtb: 6.6.1 (8d0f1dd)
N           -1.57383319354214        3.16849767822359        2.20831519140459
C           -1.60688744361251        2.33564354295346        1.27323682640721
C           -2.76561263289328        2.16094559337619        0.32593182747597
C           -3.26752514801147        0.72809902654989        0.36406500827686
C           -4.16324236212646        0.27434652259256       -0.60699027963229
C           -4.62993435519524       -1.02512089604008       -0.59978238544318
O           -5.49891602599941       -1.55383197431641       -1.50783110456954
C           -6.03954708624819       -0.71494389364281       -2.49524002779632
C           -4.20391302795726       -1.91635364355236        0.40875758260093
O           -4.69770974318820       -3.18223275288662        0.32241844142741
C           -4.29736328056315       -4.12047798248339        1.28493595799829
C           -3.34609742493791       -1.45542446945344        1.38767327915426
C           -2.88616130324722       -0.14320737054851        1.36385847820743
C           -2.21538208632375        2.47777104488094       -1.09022833041040
C           -1.34897983726209        1.37800265842642       -1.71087952958773
C           -0.03461848493048        1.14146947248026       -1.05636891233216
N            0.48487886875200        0.01418452628407       -0.76246954936527
C            1.87612215402886        0.14161248289261       -0.33974006379855
C            2.88044994112981       -0.38005463184638       -1.39091738949855
C            4.31621907856195       -0.33783328071489       -0.91834377091233
C            5.12920160810749        0.75563758844771       -1.14968185024423
C            6.44952576181334        0.78750769032091       -0.71029841565612
C            6.98302440519126       -0.28850062200716       -0.02311868362721
O            8.25289236141582       -0.36769939745005        0.46880805625216
C            9.12729664328102        0.71189559916635        0.24497486411296
C            6.16060147637308       -1.40972928902703        0.23325682490533
O            6.77098422032708       -2.41281090408394        0.92590928075496
C            6.05189342973151       -3.58393386763428        1.19504842772821
C            4.85516204639026       -1.41882985100228       -0.21768336294731
C           -0.49014175546681       -2.21315652695885       -0.05514373763403
C           -3.95764338542134        3.09591211138297        0.66450120619620
C           -4.52881871945319        2.76916940060468        2.04266625654652
C           -3.59485013535466        4.57756232841095        0.59939871671100
H           -4.49610327346899        0.94799380714250       -1.37966822711075
H           -6.57878458612942        0.13704861536726       -2.06622746212863
H           -6.73790697141684       -1.33329181579040       -3.05803912790062
H           -5.26493753971515       -0.34381270354310       -3.17262720249470
H           -4.58470337199416       -3.81944268119744        2.29847600665993
H           -4.80856163481332       -5.04759031250873        1.02880051437727
H           -3.21799284583640       -4.28389315740678        1.25132062629042
H           -3.00783902731393       -2.11175389762957        2.17316237620717
H           -2.21131663449482        0.18738450725018        2.13812003367187
H           -3.06075693942275        2.61894389010028       -1.76867325794843
H           -1.65390352595452        3.41360935719140       -1.04388906566858
H           -1.92563919678299        0.46610731195518       -1.76783169332160
H           -1.15523381629990        1.68286917751624       -2.75211422693423
H           -0.76596061797150        1.67133054661742        0.99242217295164
H            0.54459519750898        2.10473913759389       -0.98207274027456
H            2.08811488158627       -0.38357786071991        0.60583033658583
H            2.07683201633998        1.20712882519893       -0.17801252688911
H            2.77007416238340        0.23740011118830       -2.27962036790926
H            2.60420420105846       -1.39560912016295       -1.66135754771952
H            4.73929940967487        1.60187617373722       -1.69601392639486
H            7.05166835094122        1.66107599811712       -0.91346531673157
H            8.76997742211266        1.63767639424729        0.71116578647726
H            9.28420429319398        0.88730567735734       -0.82506563061968
H           10.07404864242355        0.42267125204317        0.70152627577029
H            6.74349168906866       -4.23909579623966        1.72471728250621
H            5.18568479392363       -3.38394845986399        1.83100274417579
H            5.72441783172745       -4.07418937867891        0.27271809594852
H            4.23481326393075       -2.28030996330428       -0.03250054651375
H           -0.63153333442053       -2.67495158563068       -0.99281690783278
H           -1.33589349843401       -1.68112923486788        0.26899204225668
H            0.00653720495498       -2.73198882947039        0.72004629481443
H           -4.73641490282822        2.90197319318639       -0.08352669747935
H           -3.78887514864880        2.98107001859430        2.81032770619476
H           -4.82093654817911        1.72311619667033        2.10419273856595
H           -5.40208040273046        3.38744399110985        2.23211543331403
H           -2.79545842681526        4.78987224481473        1.29777028313668
H           -3.29609070018949        4.87486772627828       -0.40109679355734
H           -4.45857877898348        5.17356258485401        0.88334167005544
H           -0.70242514868947        3.20037305262792        2.73286587360111
