72
 energy: 38.217241067302 xtb: 6.6.1 (8d0f1dd)
N           -1.57101596877401        3.09244766827914        2.23060846086654
C           -1.59227040757303        2.30402398536778        1.25579001527781
C           -2.75925340815224        2.14160848473151        0.31177289747650
C           -3.27717188443914        0.71393457446398        0.35760296939571
C           -4.19002952882569        0.26924353414973       -0.60088890439750
C           -4.67129073114377       -1.02501272700975       -0.58722969742080
O           -5.55829168716155       -1.54434043273631       -1.48406752039971
C           -6.10512787646358       -0.69631065633701       -2.45987650951038
C           -4.24080367004012       -1.92157872405587        0.41435032856576
O           -4.75157042070501       -3.18204530661087        0.33581118114774
C           -4.36447190875974       -4.11781181809919        1.30640906614980
C           -3.36213038634640       -1.47066821892071        1.37906027049950
C           -2.88829970045712       -0.16356706698303        1.34909493993800
C           -2.20768842952282        2.44286393712381       -1.10904399753268
C           -1.33342077505222        1.33776175966306       -1.72087631254518
C           -0.03220857786635        1.08526401417730       -1.05738847335416
N            0.51673160769133       -0.04152040106592       -0.80134772575805
C            1.88920325562694        0.09436290334165       -0.32122919944098
C            2.89607988026091       -0.41055026851009       -1.37502141186414
C            4.32697481211781       -0.35625267634846       -0.90656246708450
C            5.12096872456852        0.75242812567736       -1.12992979993062
C            6.43994689148391        0.79904841418876       -0.68994071440599
C            6.98538231473364       -0.27332666070018       -0.00752744780565
O            8.26012115396411       -0.34163082177061        0.48059867409948
C            9.11846972860518        0.75030303330911        0.25932059762293
C            6.18055086538755       -1.40623781011271        0.24258629471423
O            6.80381204598942       -2.40730027533769        0.92875080612225
C            6.09953322544469       -3.59007027697968        1.18718379661860
C            4.87633677631248       -1.43275689552379       -0.20981231365162
C           -0.42765884337108       -2.03940804930795       -0.16357603290210
C           -3.94171939614679        3.09175494146426        0.64877846532272
C           -4.52339573586164        2.77074340697123        2.02441149522833
C           -3.55865251235676        4.56848249003072        0.59008020244486
H           -4.52608071419949        0.94674797103882       -1.36854057353021
H           -6.62786639815008        0.15928922507995       -2.01803235699940
H           -6.81868443090694       -1.30624047419497       -3.01242901899416
H           -5.33798839466841       -0.33012450389610       -3.14874183666209
H           -4.63926035055905       -3.79936636458237        2.31810244081308
H           -4.89696176580578       -5.03595068114295        1.06216710129822
H           -3.28884284011090       -4.30560690659684        1.26952611006001
H           -3.01861667062047       -2.13089321624647        2.15910724477100
H           -2.19872341802276        0.15895625373412        2.11388652576243
H           -3.05305945839494        2.57578420344569       -1.79035296507467
H           -1.65133039311133        3.38243291986635       -1.07347860794711
H           -1.89510108740010        0.42039798446690       -1.75547657573480
H           -1.13439100626651        1.62116157141375       -2.76464510501270
H           -0.74768231470618        1.66696688065592        0.93077322460405
H            0.54102975943541        2.03937709354357       -0.95617175841945
H            2.10757939886928       -0.42899704367557        0.62581074756532
H            2.09309420504398        1.15572154412457       -0.14004176291461
H            2.77208492833106        0.20546340823813       -2.26326078305352
H            2.61582450227288       -1.42805871354705       -1.63326834510169
H            4.71831840407128        1.59571862904745       -1.67134437430704
H            7.03162108814646        1.68013597985915       -0.88897837636527
H            8.74897079664484        1.66827665103151        0.73093014705992
H            9.27000044065980        0.93290955053357       -0.81037649842569
H           10.06963595431908        0.47131163264880        0.71254328328206
H            6.79968421958923       -4.24031361964299        1.71149825635285
H            5.23049418221990       -3.40721099891441        1.82483904339676
H            5.77807387460343       -4.07710513354307        0.26085729035535
H            4.26526172665094       -2.30186364437959       -0.02837689813973
H           -0.57140496010600       -2.48262289083733       -1.12470895283300
H           -1.29853596040914       -1.59991550719487        0.26193845943195
H            0.11382168755658       -2.61766765228110        0.54584467594284
H           -4.72110436852194        2.91310244762568       -0.10273138555228
H           -3.78163933100393        2.96878834435116        2.79433478980545
H           -4.83145259529834        1.72889986001046        2.08171914253113
H           -5.38856603081829        3.40182678639735        2.21210482203939
H           -2.76094519492509        4.76786225599381        1.29415953241112
H           -3.24931897787441        4.86398299051732       -0.40784258896718
H           -4.41561155609908        5.17681714640171        0.86948437933598
H           -0.68327328224939        3.12522526964019        2.72539292982468
