72
 energy: 38.077108092655 xtb: 6.6.1 (8d0f1dd)
N           -1.52221933877673        3.32451375050437        2.13763137988358
C           -1.61487317359392        2.39322008492146        1.30892720787586
C           -2.77184344073360        2.20598648547233        0.36078473060857
C           -3.24172385620465        0.76096329448043        0.38185967228112
C           -4.09412354668731        0.28471145883536       -0.62163464623876
C           -4.52592700228888       -1.02581136285058       -0.63004796964110
O           -5.35112238932646       -1.57366572648763       -1.55902872136627
C           -5.87595808002074       -0.76279049470773       -2.58086794865428
C           -4.10990212657449       -1.90670866998711        0.39796356715392
O           -4.56502110599555       -3.17936626543466        0.29468070194970
C           -4.12871213880280       -4.12708610593004        1.23467089427613
C           -3.30158333217146       -1.42046671726865        1.40521125012379
C           -2.87434438377556       -0.09741564588219        1.39674119135485
C           -2.22097297938757        2.55832992252398       -1.04178062850846
C           -1.34368985402184        1.49326674561546       -1.68313469681004
C            0.00713706447075        1.35612585771651       -1.08113618375637
N            0.50822256793336        0.25210330444250       -0.73842221538540
C            1.89736063874487        0.29123699071368       -0.34612632849719
C            2.85326634566025       -0.29808606043422       -1.41502670993204
C            4.29413554855245       -0.29164860090786       -0.94543340528112
C            5.14504836360230        0.76656888767754       -1.19935554261393
C            6.46516276463170        0.76137592504416       -0.76040658739088
C            6.96120826218278       -0.31577350172243       -0.05460309702351
O            8.22568500831950       -0.42587517778978        0.43917519048679
C            9.14854569465975        0.61582864463669        0.20885180459154
C            6.10747670322970       -1.41121386057979        0.21305481108662
O            6.68792493088009       -2.42305863496449        0.91408515505274
C            5.93164955014975       -3.56708573892467        1.20918085084732
C            4.80092602659570       -1.38137751666481       -0.23085757774724
C           -0.59120367183170       -2.72900583716998        0.07374767316609
C           -3.98999801452516        3.10551331429939        0.70318002592681
C           -4.53765656692764        2.76469031353297        2.08742056500695
C           -3.68314203169270        4.59703211391233        0.62294079104524
H           -4.41993402276503        0.94876324555907       -1.40621912330044
H           -6.45904134685664        0.07619592906448       -2.18613680936071
H           -6.53369943913925       -1.40726381169306       -3.16189977304225
H           -5.08447594612433       -0.38157996478236       -3.23130347853130
H           -4.44873847899646       -3.87352445343016        2.25020795933295
H           -4.58743717738979       -5.06928925479073        0.94311198931016
H           -3.04165940846420       -4.22741036913696        1.20837587044581
H           -2.98451353715391       -2.06438039121193        2.20897770028323
H           -2.25075029404553        0.25005007399443        2.20432431090586
H           -3.06291073057776        2.71951101902225       -1.71581543910261
H           -1.65608664753733        3.49046164615105       -0.96854923998287
H           -1.85753830362745        0.54419846985038       -1.73426778297332
H           -1.14220178201214        1.82312005971893       -2.70541872193910
H           -0.81076943476225        1.65177432744218        1.14244411321266
H            0.56654037142809        2.32162761239746       -1.01188669203256
H            2.01099045299645       -0.29530557792522        0.57543641215371
H            2.20906810028270        1.33416680015750       -0.15509068823792
H            2.76110340556241        0.31597912752168       -2.30951904061247
H            2.54698074789642       -1.30827802227678       -1.67533503509001
H            4.79183414518012        1.61894402221821       -1.75805379778872
H            7.09806195933323        1.60928086803011       -0.97417793569957
H            8.82579625170789        1.55961292636063        0.66460295823511
H            9.31988109574375        0.77188617516465       -0.86084954865289
H           10.08113662594365        0.29711875162752        0.67516396880002
H            6.60126278775353       -4.23386421790513        1.75170075088752
H            5.07316557730247       -3.32599454321315        1.84142387171448
H            5.58879197493926       -4.06533647944020        0.29734506542313
H            4.15863264443209       -2.22402052957931       -0.03728951725317
H           -0.87678875717291       -3.21146207056268       -0.80212033118888
H           -1.15875053113902       -1.88484218243884        0.23804387809484
H           -0.20104593082382       -3.21117099212070        0.92480954161164
H           -4.76585360798347        2.87064252018141       -0.03496023182490
H           -3.80657590034525        3.00798598740554        2.85339077430596
H           -4.79083792643475        1.70997387460502        2.15851674511892
H           -5.43303388324496        3.34805132369831        2.27876284406808
H           -2.87948113745244        4.84769426283701        1.30527105076759
H           -3.41303018158525        4.90236225191563       -0.38349985797879
H           -4.56583508265149        5.15800132795216        0.91767319863949
H           -0.72554837389233        3.37288414593404        2.76916391883727
