72
 energy: 39.900690343981 xtb: 6.6.1 (8d0f1dd)
N           -1.54356080691524        3.25237449530405        2.15956191987930
C           -1.62707422504727        2.35378957677173        1.29805182776256
C           -2.77474855065736        2.18545552000395        0.34533071288070
C           -3.25396270205841        0.74604784536009        0.37418728739440
C           -4.12261470100470        0.27962120960092       -0.61652948293011
C           -4.56764297994603       -1.02664630559700       -0.61919288986882
O           -5.41099915717296       -1.56583304309897       -1.53831813585430
C           -5.94157234502066       -0.74369011669486       -2.54630589053400
C           -4.14704707488793       -1.91060625684228        0.40154181542468
O           -4.61903735322154       -3.17928989720142        0.30720541931997
C           -4.19603441134624       -4.12378041215629        1.25466825960905
C           -3.31867509045556       -1.43532670752070        1.39830646052605
C           -2.87972758558243       -0.11634846572407        1.38391607995478
C           -2.22382733031461        2.52925010888867       -1.06264684375797
C           -1.35642270105207        1.44788900883940       -1.69542610784930
C           -0.01854513188835        1.27096977505825       -1.06791612349625
N            0.48116671945365        0.15932039421656       -0.72738295202078
C            1.87886535625177        0.23366995577101       -0.34747622048130
C            2.85829489502014       -0.33058495981438       -1.40659970597918
C            4.30177957481617       -0.30853252740205       -0.93187570806871
C            5.13954398923915        0.76198929998676       -1.17880806927190
C            6.46051070100510        0.77049790703114       -0.74030896775207
C            6.97242083568985       -0.30868678329349       -0.04500364152110
O            8.23560031258988       -0.40129963489446        0.45176842015067
C            9.13979756189323        0.65454938357113        0.22312416745463
C            6.12918171655199       -1.41378968359721        0.22101669054967
O            6.72195771036335       -2.42020503012407        0.91906324615613
C            5.97967849821591       -3.57389935232335        1.20405878201302
C            4.82223657406076       -1.39628149440369       -0.22444791565855
C           -0.53463670736548       -2.51622516074690        0.04703888487265
C           -3.97859608891482        3.10141581891814        0.68798621025871
C           -4.53522634302373        2.76657815271224        2.06962674043786
C           -3.64780506396989        4.58937691756858        0.61325996749040
H           -4.45033605230845        0.94848688485597       -1.39581987227111
H           -6.50686643358217        0.10123177780359       -2.13792013769500
H           -6.61595229864818       -1.37737038556793       -3.12070385521861
H           -5.15673779069163       -0.36634892975075       -3.20767294780923
H           -4.50237864693168       -3.85166119784190        2.27024233033331
H           -4.67559557505582       -5.06103019421333        0.97796339158617
H           -3.11177931868340       -4.25019047590188        1.22523627354962
H           -2.99362678506646       -2.08398633190499        2.19512750303136
H           -2.23481633181546        0.22537505118504        2.17766074254320
H           -3.06767750045626        2.68256360435276       -1.73814706164802
H           -1.65843419564657        3.46146835089773       -0.99928438913245
H           -1.91252834802446        0.52408772676327       -1.75588533210519
H           -1.15122556717645        1.76523099677614       -2.72270854210828
H           -0.79304602573520        1.65910107384204        1.08218133742287
H            0.55928025027406        2.23207389161373       -1.00849394870881
H            2.04519279047935       -0.32490788701456        0.58656446096733
H            2.14938044021295        1.28906031279346       -0.17308222500157
H            2.76642384989653        0.28702946726580       -2.29832944175349
H            2.57566200907860       -1.34094334102006       -1.69013407356534
H            4.77101786929662        1.61157221068508       -1.73357409036917
H            7.08044178887727        1.62948331765370       -0.94952925564962
H            8.80381830176576        1.59158136450981        0.68281670842671
H            9.30575685618336        0.81825087735825       -0.84686352074219
H           10.07849582668042        0.34753861154695        0.68532356149920
H            6.65772990139446       -4.23659045026320        1.74140947430362
H            5.11806556074153       -3.34870412847641        1.83771445589553
H            5.64278193978688       -4.06846402269113        0.28774591863655
H            4.18858162185339       -2.24651800501560       -0.03496951950654
H           -0.76139039939470       -2.99568961441936       -0.84534282127117
H           -1.22435914007778       -1.77420153629421        0.25734207780012
H           -0.11563933852172       -3.00572876238927        0.87873447681208
H           -4.75560334843385        2.88337611431404       -0.05447536697357
H           -3.80028858753471        2.99737002698737        2.83579314344907
H           -4.80336381181272        1.71494451188760        2.13696938916173
H           -5.42154226228448        3.36460851251867        2.26053200805060
H           -2.84572490540544        4.82416346863811        1.30203587794225
H           -3.36625918474186        4.89080276134236       -0.39106909187674
H           -4.52309548457963        5.16459324335916        0.90342774867275
H           -0.72085442092237        3.29809978121200        2.75589450375524
