72
 energy: -4.669447759756 xtb: 6.6.1 (8d0f1dd)
N           -1.51046100611267        2.83923749298007        2.24204770032168
C           -1.55919165860804        2.17764795567689        1.17564521688965
C           -2.74870896314806        2.07643559533385        0.25931713639936
C           -3.30825076228522        0.66295463103568        0.33288356410918
C           -4.27927927996021        0.25125881555602       -0.58093588337928
C           -4.81027275806353       -1.02330786033615       -0.54312125656895
O           -5.76188000290609       -1.50357098670432       -1.39249838329048
C           -6.33174903924040       -0.62932258653266       -2.33222155364125
C           -4.36391886856696       -1.93803570840927        0.43593215415426
O           -4.93842578172735       -3.17307660076236        0.39162341898016
C           -4.59753404921560       -4.10469889266144        1.38493848961989
C           -3.40838430856991       -1.52727411879130        1.34431655770542
C           -2.88685055441638       -0.23944365692813        1.29155467792862
C           -2.19868526113400        2.33087467617907       -1.16952932024326
C           -1.27589086219451        1.21072235054555       -1.68756545809585
C           -0.01237256252985        1.10559246825936       -0.92953266820504
N            0.58980303646272       -0.11659629534679       -0.58389040699174
C            1.97166467780801       -0.02424790188308       -0.19415794140063
C            2.92835558116615       -0.51438246136016       -1.30117870118401
C            4.35390736153255       -0.41832762853162       -0.85522132086431
C            5.08641696951195        0.73557677414247       -1.06133907442855
C            6.39929267243476        0.83263374417966       -0.62170261973546
C            6.99547238759687       -0.22338679538868        0.04376285310606
O            8.27443394289868       -0.24087437343185        0.51814852409030
C            9.08114479561452        0.88888528634209        0.30626887517688
C            6.25112666998088       -1.40215739754377        0.27213159013012
O            6.92016760477830       -2.38990640517387        0.93150873072344
C            6.26759741683356       -3.61054321363851        1.15940871464008
C            4.94693250243989       -1.48109711161333       -0.17471486923970
C           -0.10552890430526       -1.40407065919169       -0.52525146839961
C           -3.88629732722752        3.07978955304827        0.59621075170883
C           -4.50239687397742        2.77477101777590        1.96059422826531
C           -3.43064703763155        4.53701239405046        0.55790233162329
H           -4.62917556649925        0.94501107035724       -1.32753254293457
H           -6.79987629478994        0.23622704435188       -1.85121410634595
H           -7.09561465659982       -1.21302297250749       -2.84367443969883
H           -5.59438366179813       -0.28267219890136       -3.06408067800223
H           -4.82898432972211       -3.73245726484881        2.38872708165141
H           -5.20453136168101       -4.98452681210111        1.17792721023017
H           -3.53861285716724       -4.37855418407665        1.33640596496203
H           -3.05704607855700       -2.19965004900323        2.11090980757335
H           -2.15575026871608        0.05441306840790        2.02915868170694
H           -3.03359787967954        2.42772949733175       -1.86566850165998
H           -1.65237515288296        3.27595009090454       -1.17298998860713
H           -1.81043758821058        0.26966108226331       -1.65297765126032
H           -1.04183475774754        1.42601064929699       -2.73985677095730
H           -0.69597839979817        1.65400895455830        0.69962428340772
H            0.65134503399585        1.96186471699653       -1.00328385240415
H            2.13401157315493       -0.61507775728589        0.71419931397806
H            2.24514013970414        1.01233137437611        0.04480258401180
H            2.76563080428458        0.09785868916298       -2.18920903031108
H            2.66505269366894       -1.54382171331795       -1.53787551660916
H            4.64308896673040        1.56983110501940       -1.58488287308992
H            6.94919305968617        1.74087724050308       -0.81117470808377
H            8.67263469792321        1.77848679652445        0.79804113926760
H            9.21617764865941        1.09473705882571       -0.76121805970958
H           10.04481658093626        0.64305325410404        0.74999487198660
H            6.99799839822774       -4.24011724841334        1.66573081281008
H            5.39090897841759       -3.48651525172341        1.80365456732489
H            5.96603154595853       -4.08993363961529        0.22180957106893
H            4.37124027734009       -2.37873557746935       -0.01030499128373
H           -0.30264291236697       -1.80422824205569       -1.53353539448760
H           -1.06672557638477       -1.31572905309146       -0.01732696664554
H            0.46960216352912       -2.15553545486229        0.01459178509790
H           -4.66317873184760        2.94955517803107       -0.16721555202877
H           -3.76184352025003        2.91903576153669        2.74202754035568
H           -4.86485534941008        1.75016219952885        2.00168318472362
H           -5.33819014873267        3.44619214303035        2.14329384448075
H           -2.63647412956294        4.70174160260680        1.27828549872397
H           -3.08558821565098        4.82580658687336       -0.43108907186262
H           -4.26630386412917        5.18203507465277        0.82031813852970
H           -0.61900744907226        2.84564445918527        2.73350334183340
