72
 energy: 31.659628090096 xtb: 6.6.1 (8d0f1dd)
N           -1.57368193389894        3.30041973053701        2.18359926171566
C           -1.60589302922581        2.41045552241885        1.29743246200016
C           -2.77106005342874        2.22592271318575        0.36378682521042
C           -3.22056314226773        0.77389306640594        0.37333183948026
C           -4.05330849155257        0.28717662845591       -0.63731854946561
C           -4.47818558032314       -1.02817237738119       -0.64713408150593
O           -5.29257345673972       -1.58853644196838       -1.58651219015230
C           -5.78378609113981       -0.79065202792831       -2.63107358423709
C           -4.06583189008040       -1.90323931781868        0.38216524969181
O           -4.51580245104251       -3.18438010149688        0.27957836809183
C           -4.04018575812609       -4.12972091799424        1.20037579147216
C           -3.27620612360299       -1.40842284661295        1.40319762046874
C           -2.86200037805060       -0.08331019618682        1.39594482816782
C           -2.22967024913280        2.61382597403525       -1.03901635025030
C           -1.29723336277450        1.58986553519204       -1.69454003077562
C            0.07746081223682        1.55545134947576       -1.11553996414829
N            0.62774273366059        0.46600619382187       -0.81796603425363
C            1.98270058058217        0.43519753312855       -0.35807748253446
C            2.87885877059007       -0.23598605209391       -1.41680074142317
C            4.30798530812757       -0.27322652333620       -0.95781000381687
C            5.16658069962594        0.77824099136006       -1.21817336932552
C            6.48155327085587        0.75738003792948       -0.77027857282596
C            6.96026640391731       -0.32343000585920       -0.05239192418645
O            8.22477320111205       -0.45395689690203        0.44086296403172
C            9.16030389132703        0.56249424020185        0.19238415830857
C            6.09420675690380       -1.40800981629558        0.21437431238779
O            6.65540418927949       -2.43547407061322        0.91119535290292
C            5.86639433746227       -3.55769448298203        1.21302781179976
C            4.78790589391404       -1.36580668372404       -0.23673193098403
C           -0.84366431166075       -3.17401907255926        0.12274234845743
C           -4.00188027558205        3.10375995793225        0.72267413507709
C           -4.54123439141609        2.75594352634560        2.10944101630637
C           -3.73531089148250        4.60598422443825        0.64232520272233
H           -4.36476201874582        0.94880587049883       -1.42924386084482
H           -6.38785999802598        0.04517801402106       -2.25917955148537
H           -6.41560296717489       -1.45021275272282       -3.22516906182301
H           -4.97723427492492       -0.40318027822961       -3.26377182871016
H           -4.37149873913841       -3.90575601579241        2.22112652510448
H           -4.46529205462864       -5.08268092699785        0.88827759578545
H           -2.94411030178168       -4.18908718846929        1.17384210496808
H           -2.97110515599997       -2.04578358126648        2.21680286653997
H           -2.25539014508013        0.27278747189996        2.21368312224399
H           -3.07974358210880        2.78283258321268       -1.70048137229180
H           -1.69641075459317        3.56362174673537       -0.95352628109230
H           -1.71962660289166        0.58992728185944       -1.67370192503768
H           -1.15464020548097        1.87987918226096       -2.73715635801469
H           -0.77505763324676        1.72176768211678        1.07287415549063
H            0.57323470280608        2.54069401331333       -1.00422402465331
H            2.00681445614437       -0.16416572113709        0.55487517171998
H            2.37917423578524        1.44445247735626       -0.14336637908226
H            2.80393984359615        0.33183132010980       -2.34711208678060
H            2.50406925734167       -1.24395220370633       -1.59618339064272
H            4.81828569010140        1.62879469627437       -1.78574012582519
H            7.12635816513500        1.59381697001785       -0.99261355345824
H            8.85628541591806        1.51575767419561        0.63891243514425
H            9.33495178732251        0.70390148356459       -0.88021979573389
H           10.08434672069931        0.22646033407849        0.66222836776321
H            6.52195808127621       -4.23340952381693        1.76151020414302
H            5.00827491057479       -3.29647711154195        1.84211846180545
H            5.51069524193233       -4.06084002010455        0.30711715305981
H            4.11875038506755       -2.18917449300455       -0.04067051835281
H           -1.19366889610244       -3.68498169467150       -0.73531623659252
H           -0.97669754727923       -2.12989577648989        0.13325593190225
H           -0.50992404710450       -3.65246550193045        1.00934523433931
H           -4.78030284636665        2.85725218093317       -0.00926574672113
H           -3.80586512931537        3.01107368707912        2.86507601749989
H           -4.77141805672218        1.69588898908806        2.18429174904486
H           -5.45143407279235        3.31958601904525        2.30327128677589
H           -2.92661715365197        4.87328120934472        1.31454928319331
H           -3.48002982288067        4.91635601134199       -0.36752280102866
H           -4.63175361738839        5.14374540630704        0.94294932660276
H           -0.70917932005359        3.33334467857891        2.72445415432550
