72
 energy: -2.056195752868 xtb: 6.6.1 (8d0f1dd)
N           -1.51855381415931        2.87596502936946        2.24232482671192
C           -1.56272312481163        2.19350073600791        1.18880037806701
C           -2.74959766015496        2.08516115668631        0.26716451860455
C           -3.30447093208401        0.67052265374420        0.33670819775381
C           -4.26717483519965        0.25386360075543       -0.58335898127209
C           -4.79097746175583       -1.02376462172152       -0.54939815541156
O           -5.73309696666427       -1.51028462677480       -1.40645041674047
C           -6.29949669582659       -0.63897887045103       -2.35086805740400
C           -4.34666651951769       -1.93591225834488        0.43249424283369
O           -4.91146523021832       -3.17570498383528        0.38238810115489
C           -4.56410761927961       -4.10715266671948        1.37323010431187
C           -3.40149051218703       -1.51935132892695        1.34885141614544
C           -2.88694213319545       -0.22865719085120        1.29955080149636
C           -2.19996021046118        2.34518137050914       -1.16119253451711
C           -1.28587374697182        1.22515760829387       -1.69876946718754
C           -0.02372713419859        1.08153742814533       -0.95556123858458
N            0.56697650677042       -0.15875367819570       -0.59986104500805
C            1.95381440042895       -0.02240046371864       -0.21146314678681
C            2.92436025335568       -0.50189129498240       -1.31172715726219
C            4.35038493271948       -0.40987404179954       -0.86338057993827
C            5.09132474169456        0.73834019006602       -1.07093049812929
C            6.40518087207277        0.82812287954329       -0.63117743433253
C            6.99424572761788       -0.23044642419608        0.03653932966191
O            8.27318678257658       -0.25547442075868        0.51288189238573
C            9.08640774967953        0.86945483491540        0.29923079032703
C            6.24138878549745       -1.40283457736612        0.26758028636528
O            6.90360490923198       -2.39289435783833        0.93139762735498
C            6.24367463975156       -3.60825850820667        1.16357849536216
C            4.93742638510690       -1.47447725117742       -0.18067705563206
C           -0.13554208821996       -1.45864099542206       -0.47861114390108
C           -3.89447341876739        3.08096959514774        0.60338235607886
C           -4.50544744083893        2.77420960692891        1.96975219336284
C           -3.44877996475569        4.54106196673818        0.56272739754955
H           -4.61468989568216        0.94504115778662       -1.33336463937529
H           -6.77505690521856        0.22527754278604       -1.87478881483740
H           -7.05635244730560       -1.22618568167042       -2.86873061373477
H           -5.55740780947214       -0.28922416983592       -3.07617130944794
H           -4.80165816423499       -3.74173412065728        2.37816676202878
H           -5.16039266209983       -4.99306337132893        1.16114143933232
H           -3.50233615505969       -4.36880531346378        1.32664323801981
H           -3.05086620462557       -2.19005291115217        2.11717536481768
H           -2.16110685179146        0.06979244107921        2.04045416191794
H           -3.03691111036283        2.44940967421652       -1.85470241777127
H           -1.65075030505345        3.28865744301767       -1.15860093134934
H           -1.82196301102795        0.28849484881171       -1.67329713184393
H           -1.05966064605555        1.45336721884580       -2.75052909172668
H           -0.70216140315826        1.65427713212263        0.73121108208554
H            0.64279375626342        1.93613543789020       -1.01889058858521
H            2.13916568456141       -0.59066200588078        0.70697144871448
H            2.21321420290976        1.02358891683756        0.01463879850683
H            2.76496708635248        0.11206843016105       -2.19861055538281
H            2.65997169432440       -1.52951245131894       -1.55134796501879
H            4.65364950409786        1.57427527503137       -1.59653540276642
H            6.96121609103788        1.73269001436761       -0.82158529724022
H            8.68260493948487        1.76290968708086        0.78803491235779
H            9.22328048482950        1.07183097883135       -0.76874752028467
H           10.04848333913142        0.61934199709132        0.74424950914958
H            6.96990644466704       -4.24064583799153        1.67264157722610
H            5.36787941061825       -3.47581043223332        1.80695901191308
H            5.93932222373293       -4.08917940929253        0.22770398530968
H            4.35639030936634       -2.36801841793478       -0.01370624694364
H           -0.34376040514261       -1.89513555960140       -1.47297645711099
H           -1.09356391196224       -1.34694693808197        0.02794115791407
H            0.42072532897717       -2.20746472736455        0.08683591623840
H           -4.67232166605851        2.94484608867355       -0.15838474174304
H           -3.76329366973738        2.92652026723328        2.74880886456302
H           -4.86019539448306        1.74684486386620        2.01353505795926
H           -5.34544501883106        3.44027389193759        2.15324542665497
H           -2.65415971659226        4.70960400207408        1.28106861124388
H           -3.10855613868215        4.83095592670824       -0.42738237356868
H           -4.28721742920271        5.18151458119383        0.82759899087452
H           -0.62828169709672        2.88500842268396        2.73520407935862
