72
 energy: 37.205111638188 xtb: 6.6.1 (8d0f1dd)
N           -1.56267313282481        3.05439797297794        2.23601125989750
C           -1.58464692731084        2.28828407232990        1.24270845491471
C           -2.75694147347894        2.13221159899898        0.30435481895498
C           -3.28202298329550        0.70699484990672        0.35451668284252
C           -4.20338556876419        0.26672399371962       -0.59748267599957
C           -4.69189801982863       -1.02490187522408       -0.58080510808140
O           -5.58787625847529       -1.53935923139558       -1.47171789978694
C           -6.13783441323014       -0.68694930552206       -2.44214655088833
C           -4.25904435224595       -1.92408995266607        0.41742309574732
O           -4.77851305754063       -3.18177434578153        0.34300492245065
C           -4.39829998915808       -4.11660571728156        1.31752019887730
C           -3.36913934234419       -1.47848829173125        1.37419460013376
C           -2.88824317568621       -0.17407594028094        1.34106713954598
C           -2.20302307086626        2.42460062180471       -1.11734028596563
C           -1.32413820546448        1.31389047288469       -1.72216495954390
C           -0.02993574111708        1.04188305090903       -1.05547728667503
N            0.53265867291741       -0.10477369831590       -0.81194000251614
C            1.89955240973554        0.06723126865773       -0.30625413933017
C            2.90403031584983       -0.42638680227381       -1.36557664316488
C            4.33274590189913       -0.36572488214138       -0.90071314844112
C            5.11665020528427        0.75063931489309       -1.12028237183053
C            6.43462697783390        0.80469760717615       -0.67979250298359
C            6.98712854208589       -0.26556724994786        0.00028471071712
O            8.26320018511792       -0.32764010041761        0.48661497612462
C            9.11425404196118        0.76961351027622        0.26650842443994
C            6.19125116096839       -1.40522992342594        0.24675623932395
O            6.82076567698511       -2.40464032826552        0.92978767362633
C            6.12385558069683       -3.59310476240847        1.18337681840727
C            4.88731882603467       -1.43990603455794       -0.20573175570832
C           -0.37711593747278       -1.93198640575364       -0.21535920825957
C           -3.93430215683602        3.08971559318217        0.64080000446497
C           -4.52099559889582        2.77172491775371        2.01519739665582
C           -3.54078335954424        4.56384793911608        0.58550004065234
H           -4.54108218767856        0.94607560809469       -1.36272676550592
H           -6.65223759912838        0.17039661330607       -1.99403394116814
H           -6.85885570284907       -1.29298358749903       -2.98925817735415
H           -5.37445190944119       -0.32338075497329       -3.13675932916323
H           -4.66669269126328       -3.78951703480114        2.32819753970078
H           -4.94156811569181       -5.02985987030343        1.07864867473055
H           -3.32462164976924       -4.31682699658407        1.27910900734922
H           -3.02392324126263       -2.14048560649040        2.15210599407760
H           -2.19206153678846        0.14458646295935        2.10150611915307
H           -3.04780495381969        2.55474580682081       -1.80075838055124
H           -1.64912215742711        3.36581495774421       -1.08639276994338
H           -1.88235652445299        0.39705161326124       -1.74740674877310
H           -1.12340536987895        1.59108260957725       -2.76742550613036
H           -0.73943793396252        1.66354203108805        0.89817693171052
H            0.53714079689723        1.99271924161519       -0.93557594214169
H            2.11940057162647       -0.45517943529053        0.63941603331970
H            2.10319567672429        1.12858828649483       -0.11645746771313
H            2.77179632080327        0.18935599942072       -2.25334406464895
H            2.62308140003956       -1.44483548458567       -1.61963379054674
H            4.70725749987614        1.59275286807387       -1.65862776509051
H            7.02022015887954        1.69002486444485       -0.87695004717936
H            8.73899504750541        1.68364572049731        0.74089235270281
H            9.26327038096560        0.95553450601412       -0.80297910026217
H           10.06704638780542        0.49493006162692        0.71854150887711
H            6.82848882745244       -4.24032493451706        1.70520806891636
H            5.25348332685198       -3.41876697731022        1.82197828787174
H            5.80532120445319       -4.07898571252858        0.25530504804870
H            4.28066294424096       -2.31291177821554       -0.02669620240404
H           -0.53537225799564       -2.38347661874594       -1.18009136505749
H           -1.27030167760734       -1.55700204785046        0.23039875165976
H            0.16819307809354       -2.54777016781565        0.46626863445182
H           -4.71411660414062        2.91901616963181       -0.11229845888538
H           -3.77888135307696        2.96288807397941        2.78636296282078
H           -4.83652916574690        1.73196937841663        2.07054151616425
H           -5.38228508985691        3.40881167725557        2.20189752392998
H           -2.74366654234023        4.75764241033886        1.29215326624100
H           -3.22605810918922        4.85821339664997       -0.41112875168481
H           -4.39448635520711        5.17819250115763        0.86231294516943
H           -0.67142063188648        3.08476017386472        2.72295329345405
