72
 energy: 14.720668710298 xtb: 6.6.1 (8d0f1dd)
N           -1.54340857204605        2.98630027656369        2.24025202868564
C           -1.57523740729950        2.24736925770278        1.22399600652274
C           -2.75328664480265        2.11282583722072        0.29050799176000
C           -3.29128762364553        0.69301329852443        0.34776536834145
C           -4.22908446722649        0.26158114197215       -0.59113523147568
C           -4.73192140095208       -1.02466357358486       -0.56802125865668
O           -5.64614394075615       -1.52896985326704       -1.44626930920245
C           -6.20296189653884       -0.66817827021184       -2.40580639806815
C           -4.29432505166988       -1.92884101246613        0.42332245960369
O           -4.83138895082202       -3.18127317024674        0.35748150092902
C           -4.46511921485558       -4.11318579999958        1.33994370744518
C           -3.38050390657400       -1.49540435623614        1.36318243093067
C           -2.88641532720972       -0.19618271080156        1.32386289484873
C           -2.20115679221126        2.38903606001157       -1.13445834110869
C           -1.31070619285292        1.26955996076301       -1.72341535852003
C           -0.04653989483336        1.00042602258748       -1.02946912190045
N            0.50714726580461       -0.26751799572418       -0.67646398178273
C            1.90044373467015       -0.00911125963528       -0.26198868945055
C            2.91092464848370       -0.46135274613412       -1.34337390890923
C            4.33893461299630       -0.38386216908213       -0.88639164523915
C            5.10631437964834        0.74581562076722       -1.10037622854196
C            6.42286454668796        0.81424504575719       -0.66030198889919
C            6.99041125305002       -0.25129410678953        0.01513367366208
O            8.26847473472636       -0.29946703709075        0.49766600119611
C            9.10365454890215        0.80939807174096        0.27996618120705
C            6.21162804451925       -1.40381045665632        0.25533071421119
O            6.85408533750228       -2.40030891731959        0.93129738863686
C            6.17211043789048       -3.59966131494932        1.17524017771230
C            4.90798956725226       -1.45371296471451       -0.19600667643524
C           -0.22895252739764       -1.63240406091672       -0.35210111782112
C           -3.91873260689916        3.08575086753801        0.62538571315418
C           -4.51505720676369        2.77298961537422        1.99684987230631
C           -3.50441345632939        4.55456620111039        0.57626423276634
H           -4.57027137967439        0.94544842880316       -1.35059102579599
H           -6.70139838475567        0.19207497842073       -1.94591494504837
H           -6.93852055113784       -1.26675998024956       -2.94138592622177
H           -5.44779357847748       -0.30997716445242       -3.11243301379402
H           -4.72082719919648       -3.76978625345444        2.34837752188718
H           -5.02943200818406       -5.01617489158961        1.11217158702120
H           -3.39558079400076       -4.33833846525300        1.29879882355702
H           -3.03422096170244       -2.16041264192907        2.13840374413560
H           -2.17893014213978        0.11572361300009        2.07677604464864
H           -3.04356150118863        2.51169320031956       -1.82132205136967
H           -1.64780684202128        3.33050288480406       -1.11476825068021
H           -1.86038105677682        0.34943744038477       -1.73137487689027
H           -1.10617009130546        1.53798713784721       -2.77168173203120
H           -0.72414816544420        1.65789131725736        0.82985310091504
H            0.56632514472238        1.89773462297632       -0.94877259358142
H            2.14595553583008       -0.51687349978504        0.67894710912535
H            2.11981033405752        1.05870176223448       -0.07076332833268
H            2.76664456275775        0.15826356863442       -2.22767962207305
H            2.64343301334836       -1.48293954700038       -1.59743966015865
H            4.68589975114580        1.58590774188388       -1.63327058183379
H            6.99697010713121        1.70739483648077       -0.85475044003885
H            8.71616287132259        1.71501404376606        0.76008139351464
H            9.24752082304357        1.00198348321388       -0.78902603338666
H           10.06013786452505        0.54461856306893        0.72937829913936
H            6.88522644756453       -4.24124356021331        1.69201044760329
H            5.29917122201787       -3.44227508498805        1.81568481960907
H            5.85927884889022       -4.08355536616050        0.24383971880542
H            4.31167305118009       -2.33528662476339       -0.02161994475958
H           -0.45305014514964       -2.16386145553105       -1.29714537272632
H           -1.18313978705586       -1.46010602030448        0.14269448538219
H            0.28024850484191       -2.36090752653588        0.29053811866282
H           -4.69811768893854        2.92970425891457       -0.13149851674422
H           -3.77137838453044        2.94920810409723        2.77035641276420
H           -4.84624198348130        1.73781237293104        2.04778729832466
H           -5.36814820482962        3.42183902821710        2.18198834567353
H           -2.70824653643997        4.73758542949173        1.28773448926132
H           -3.17917958103009        4.84700416008104       -0.41767098817537
H           -4.35206122161818        5.17984554799292        0.84814476770987
H           -0.65120932066286        3.00478951275197        2.72625139547056
