72
 energy: 35.122236863544 xtb: 6.6.1 (8d0f1dd)
N           -1.52528438309270        3.34926572216334        2.12744751733328
C           -1.60489066913828        2.40231580751065        1.31232337206903
C           -2.77021781960823        2.22064503757136        0.37060013657309
C           -3.22951032891479        0.77277359182864        0.38469554122540
C           -4.06822850218876        0.28929381508767       -0.62619263086765
C           -4.49343597426370       -1.02248237677978       -0.63340001447031
O           -5.29249437761683       -1.58535865991254       -1.58252311855392
C           -5.81140224270040       -0.78346474305313       -2.61635923979815
C           -4.07970467626205       -1.89833624096707        0.39752090634266
O           -4.51006548009707       -3.18194474721048        0.27956400912447
C           -4.06155168175109       -4.13104469259508        1.21400667819333
C           -3.28765997548434       -1.40519064178525        1.41499530279971
C           -2.87329019765819       -0.07873001415287        1.41119553130963
C           -2.21473433196754        2.58532576390096       -1.02821028417220
C           -1.32415485159227        1.53225834304410       -1.67596850524731
C            0.03573975816123        1.43484873327158       -1.08935738701923
N            0.55270788022739        0.33478919007870       -0.76914424729587
C            1.92844123225203        0.34936129055876       -0.34807666365825
C            2.85616867928446       -0.26725219171526       -1.41955104856626
C            4.28811694429018       -0.27622068979951       -0.95151464276360
C            5.15130819725351        0.77146500138926       -1.21658940573150
C            6.47146705827589        0.75167300280575       -0.77878382884501
C            6.95351291678411       -0.32481230468676       -0.06100624825293
O            8.22323784581843       -0.45163728660784        0.42995923339409
C            9.15875161845840        0.57750779870423        0.19455429861453
C            6.08902399173963       -1.40828875353480        0.20865783354268
O            6.65428687474065       -2.42866542944628        0.91351930533217
C            5.88295463829660       -3.56160758833084        1.21544951046923
C            4.78222436648837       -1.36733740951369       -0.23419983233698
C           -0.67873844564632       -2.91915473439156        0.09987242697354
C           -4.00192652313347        3.10708666526641        0.71737476474407
C           -4.54173403830031        2.76289859269106        2.10481894613147
C           -3.71818368009853        4.60376293787921        0.63210425245915
H           -4.38894281225881        0.94777766473557       -1.41767240248806
H           -6.41007895020284        0.05086352407519       -2.23425354006496
H           -6.45315424793660       -1.43767210684239       -3.20571634797262
H           -5.01319855844895       -0.39674376001664       -3.25547312442326
H           -4.39332417766255       -3.89403406490758        2.23031931568178
H           -4.49890802700396       -5.08046337488116        0.90898292175004
H           -2.97147347313516       -4.20646602626390        1.19143225846803
H           -2.97446761243345       -2.04530883250083        2.22325966439911
H           -2.26586733078942        0.27693492927979        2.22886814539715
H           -3.05736129822091        2.75611280116046       -1.69848977771267
H           -1.65267267544496        3.52058892066251       -0.94952371938187
H           -1.80186870263478        0.56112920938838       -1.70824999738872
H           -1.11643858030962        1.85149216188755       -2.69225729861381
H           -0.81242569027862        1.66165526330822        1.13602833503721
H            0.57221776691138        2.40814689441109       -1.01216486021121
H            2.01000607022179       -0.24480366797320        0.56766529608720
H            2.27325677007094        1.38024637642030       -0.14678806772575
H            2.76651048154923        0.33525008614337       -2.32524040771098
H            2.52550312566498       -1.27864859794994       -1.64796244582541
H            4.81132688402130        1.62500026584389       -1.78235743889559
H            7.11716063671628        1.58918277264250       -0.99904993298517
H            8.84762294589443        1.52793569616635        0.64528644378914
H            9.33373073733470        0.72564497938107       -0.87573309019109
H           10.08576204835252        0.24827169129402        0.66436489834976
H            6.54388630341673       -4.23317959444711        1.76298737515291
H            5.02741359283732       -3.30486895155972        1.84588339098708
H            5.53448506781022       -4.06245864989217        0.30699526067771
H            4.12954663602864       -2.20249828908301       -0.03853956898530
H           -1.00341406651903       -3.40962109600714       -0.76626619667877
H           -1.05058988531155       -1.95554258205674        0.19010051089956
H           -0.32261749060318       -3.39024998720208        0.97820162508310
H           -4.77934327678204        2.85928320397707       -0.01638264839883
H           -3.81330632348431        3.01951492352143        2.86957177376713
H           -4.77901994865087        1.70409103392369        2.18007386990651
H           -5.44657989083531        3.33325315406858        2.29537136373484
H           -2.91359439661306        4.87038300784081        1.30811106684529
H           -3.45934161165465        4.91316389669489       -0.37655029690337
H           -4.60779218461002        5.15326198584986        0.93031633191036
H           -0.72336281048005        3.40651662317588        2.74495350461053
