72
 energy: 40.573048683872 xtb: 6.6.1 (8d0f1dd)
N           -1.55560841805590        3.22582044786634        2.17251841653641
C           -1.62263393469511        2.34718876449965        1.28859037337242
C           -2.77220821755426        2.17738138047067        0.33842227049976
C           -3.25845158658169        0.74046702236710        0.37030980544593
C           -4.13614364263482        0.27808238833855       -0.61346684762392
C           -4.58816233632128       -1.02597802089227       -0.61238900992778
O           -5.44002142018769       -1.56214699565729       -1.52866254028292
C           -5.97437379420998       -0.73412450034125       -2.52932378195086
C           -4.16582889210371       -1.91198894710369        0.40370622783488
O           -4.64469446115188       -3.18064296880042        0.31178304534686
C           -4.22959299019462       -4.12272200502904        1.26451521920804
C           -3.32776261546591       -1.44175759246861        1.39491763073454
C           -2.88199769966205       -0.12495909255976        1.37718743609126
C           -2.22212221571865        2.51331023939459       -1.07212274848264
C           -1.35796523790417        1.42378724540441       -1.70061400700265
C           -0.02662121973831        1.22622050831742       -1.06435398209243
N            0.47782097905868        0.11100510819246       -0.73000431258048
C            1.87639150660348        0.20429629660180       -0.34657931004747
C            2.86512715773379       -0.34735541647604       -1.40172471462725
C            4.30638058480529       -0.31750471196835       -0.92591503838393
C            5.13645509532232        0.76009743430808       -1.16865312174129
C            6.45754565063368        0.77600848720823       -0.73016021726221
C            6.97779374951140       -0.30274595026904       -0.03816876744821
O            8.24219957418028       -0.39056812979002        0.45765481193746
C            9.13597462733063        0.67350646683252        0.23048983265840
C            6.14030441585823       -1.41318503507968        0.22528000010374
O            6.73843622124298       -2.41824044314036        0.92188740098804
C            6.00341472555037       -3.57728024829304        1.20109379284290
C            4.83343144539614       -1.40360204348485       -0.22172368373632
C           -0.51628147173907       -2.40926342215030        0.02566200716408
C           -3.97193799940526        3.09953046018672        0.68016632220864
C           -4.53311940152111        2.76734070818220        2.06065241645056
C           -3.63031072536295        4.58560096066171        0.60865705881130
H           -4.46551500707274        0.94840271130347       -1.39071579013150
H           -6.53079590091012        0.11340171584910       -2.11384145213071
H           -6.65706111719375       -1.36243777290629       -3.10014672763539
H           -5.19305472904631       -0.35862066653063       -3.19616269371914
H           -4.52940804073436       -3.84065504532118        2.27962685500687
H           -4.71977483652564       -5.05703346118233        0.99511467164084
H           -3.14690676649420       -4.26180379820752        1.23359358884470
H           -2.99809515082987       -2.09325981780289        2.18775232518279
H           -2.22626737118025        0.21320098231709        2.16397517430278
H           -3.06676756911505        2.66231559384283       -1.74859785981207
H           -1.65720580296513        3.44611961133862       -1.01441551396941
H           -1.93703687576282        0.51214462076098       -1.76575100565273
H           -1.15774069895444        1.74117879701229       -2.73423935850250
H           -0.78426413437736        1.66291346651118        1.05222436754863
H            0.55407946435383        2.18824551697118       -1.00283215841005
H            2.06375033189546       -0.33932592356600        0.59243933171447
H            2.12439813132817        1.26419913741008       -0.17916456932681
H            2.76816568990138        0.27034310088011       -2.29260928439990
H            2.58793049342621       -1.35944482274273       -1.68398716487095
H            4.76041582614876        1.60833507924802       -1.72112335620865
H            7.07117915899659        1.64027043041423       -0.93774607539550
H            8.79276397955513        1.60685671860890        0.69229908973425
H            9.29867114861206        0.84119218064770       -0.83964556709873
H           10.07748797879622        0.37239189559331        0.69061728222762
H            6.68579821368716       -4.23790451082907        1.73569059858697
H            5.14022026168025       -3.36034135032532        1.83543160138261
H            5.66963122086986       -4.06985960590113        0.28245886735312
H            4.20378136713032       -2.25744884512492       -0.03366483832019
H           -0.70758439423247       -2.87981886980930       -0.88238324808354
H           -1.27693653669075       -1.74719048752414        0.27184753977903
H           -0.08047382931134       -2.90000997277211        0.84844562075004
H           -4.74969893007586        2.88976665703817       -0.06426463292877
H           -3.79621138225796        2.99178140233230        2.82709416561336
H           -4.80899374497300        1.71734823293765        2.12597037802970
H           -5.41498771153438        3.37239102135122        2.25142134237362
H           -2.82907392279654        4.81260977253644        1.30050324389250
H           -3.34307070746868        4.88543166515718       -0.39450035582479
H           -4.50170616338968        5.16795260761108        0.89682404321394
H           -0.71678696350920        3.26592389073003        2.74665038174593
