72
 energy: 31.153849718207 xtb: 6.6.1 (8d0f1dd)
N           -1.57495782576772        3.26174638502075        2.20017394696274
C           -1.60310773234173        2.39610399439521        1.29039830114958
C           -2.76751511994080        2.22295658185725        0.35483683644333
C           -3.21642795202021        0.77133839800073        0.36456337490147
C           -4.05779415624561        0.28642249920449       -0.64022639290962
C           -4.49458644199401       -1.02435938464207       -0.64312429788263
O           -5.31387257002487       -1.58302646718599       -1.57768350060221
C           -5.82053059967862       -0.78139637296962       -2.61383036816411
C           -4.07971919649831       -1.90120732891115        0.38483952070131
O           -4.53552686549866       -3.17867266305706        0.28213632962645
C           -4.07705417750060       -4.12635287409929        1.21025941411480
C           -3.27545999086663       -1.40951352207984        1.39605245077653
C           -2.85474210289537       -0.08616152605939        1.38579931078275
C           -2.23104081642491        2.62188600526384       -1.04662712163825
C           -1.28658993060681        1.60700329244387       -1.70160530285914
C            0.09046307921510        1.59553438384834       -1.12280034711580
N            0.64930254964060        0.50531663374626       -0.84705461167229
C            1.99663432408219        0.46468862850539       -0.36686488616917
C            2.88909908389151       -0.22909771735015       -1.41252114898410
C            4.31911937071251       -0.27181614658296       -0.95689977625537
C            5.17541224915946        0.78135369431820       -1.21780910003098
C            6.48943066681822        0.76091120113732       -0.76788615750830
C            6.96926675757914       -0.31942047581990       -0.05027868163320
O            8.23313785377283       -0.44716709612702        0.44588902797839
C            9.16093502017084        0.57746290956680        0.20222160227551
C            6.10706255085060       -1.40783553434399        0.21292984828071
O            6.67229703328131       -2.43207567550097        0.91312796838555
C            5.89153469515590       -3.56229492801352        1.20800141151503
C            4.80083347907241       -1.36619462348299       -0.23816029765780
C           -0.90566126972938       -3.22507205442078        0.12598960956775
C           -3.99702362257480        3.10280108547416        0.71522051124682
C           -4.53844165197418        2.75487072100284        2.10044777072613
C           -3.71953348778954        4.60318119338014        0.63977590020833
H           -4.37323601112582        0.94772330607616       -1.43098200936975
H           -6.41708257982651        0.05403262679429       -2.23061653441820
H           -6.46205164923788       -1.43931961157885       -3.19884045076107
H           -5.01970330426330       -0.39557795439607       -3.25298738513602
H           -4.40367165047318       -3.89065839369177        2.22918488682628
H           -4.51634531811756       -5.07412309604868        0.90144789364119
H           -2.98256587254209       -4.19747214273989        1.17956603665291
H           -2.96861809307362       -2.04833634989145        2.20795792890207
H           -2.24055741850355        0.26527400537476        2.19923795947695
H           -3.08556776071996        2.77390112741336       -1.70773221864158
H           -1.71049471301272        3.57886122786757       -0.95623829109656
H           -1.68698799695936        0.59517143162254       -1.65940729594862
H           -1.17162306548122        1.88333512178218       -2.75495293856389
H           -0.76729600086427        1.72335828528812        1.04495788592672
H            0.57763957871992        2.58135758689589       -1.00230278572526
H            2.00549729584048       -0.12979849758699        0.55149394467622
H            2.40812738481534        1.46937329929163       -0.15319006843305
H            2.81629290867563        0.32531899459601       -2.35070465771270
H            2.50187603598519       -1.23507126663696       -1.57605429418511
H            4.82677464849581        1.63451293677350       -1.78163435187496
H            7.12987437637582        1.60234376023171       -0.98204352097798
H            8.84884535985585        1.52623263527210        0.65272274768421
H            9.33122925465935        0.72226656812085       -0.86989665056642
H           10.08651208138521        0.24568781884013        0.67078794594669
H            6.55432456580167       -4.23362681821204        1.75339237106158
H            5.03298830178198       -3.30987677306842        1.83889442739231
H            5.54119375267170       -4.06236807603290        0.29884753953677
H            4.13508131473789       -2.19272245188874       -0.04427338028892
H           -1.25221367214769       -3.77133117646793       -0.71732619076924
H           -0.97158068767736       -2.15796455527333        0.11576450816984
H           -0.59155003817748       -3.71437640907700        1.02523633258476
H           -4.77603381118330        2.86092197278886       -0.01820742695331
H           -3.80089123957806        3.00304348454341        2.85608177120041
H           -4.77598637629371        1.69634849408038        2.17149433347671
H           -5.44397436398922        3.32385323385134        2.29735866515999
H           -2.91138260509417        4.86425517440931        1.31469571984203
H           -3.46219737282685        4.91560278225661       -0.36863877426686
H           -4.61087048058895        5.14868666368298        0.94029011060056
H           -0.71069432590387        3.29082259751260        2.74060898492385
