  72
        -99.32694983
 N         -2.2015541271        2.9217623358        2.7172943781
 C         -2.0479629177        2.1961582511        1.7128330596
 C         -3.0500291574        2.0692970614        0.5971673827
 C         -3.5402560852        0.6333044525        0.5065848810
 C         -4.3756891555        0.2530897093       -0.5460485982
 C         -4.8697901752       -1.0364845915       -0.6505505361
 O         -5.7053127637       -1.4752827588       -1.6138859209
 C         -6.2743625412       -0.5474542030       -2.5083725869
 C         -4.4935146946       -2.0109749563        0.3141746993
 O         -4.9994376306       -3.2445695420        0.1193336484
 C         -4.7296780678       -4.2543401405        1.0633864897
 C         -3.6658396322       -1.6273686310        1.3573975861
 C         -3.2058935300       -0.3199018480        1.4568175259
 C         -2.2914900155        2.4581724806       -0.7014782503
 C         -1.3439982891        1.3799481570       -1.2597232923
 C         -0.1259776924        1.1784055411       -0.4342193973
 N          0.4000279810        0.0077913719       -0.0909276855
 C          1.5142617788       -0.1074666809        0.6182952955
 C          3.6604186280       -0.6681643732       -2.7047390531
 C          4.7331345051       -0.4596527691       -1.8724391554
 C          5.4004046439        0.7970125695       -1.8285814199
 C          6.4831554520        1.0029360122       -1.0136861248
 C          6.9670079504       -0.0202556410       -0.1926498764
 O          8.0150491503        0.0696444643        0.6331797571
 C          8.7483449549        1.2708296527        0.7092187436
 C          6.3148384380       -1.2961628687       -0.2106073850
 O          6.8638159718       -2.2101923452        0.6161977120
 C          6.3379702740       -3.5158729984        0.6388737995
 C          5.2306271707       -1.4955016255       -1.0260929477
 C         -0.2759403051       -1.2164321685       -0.4863543400
 C         -4.2889443580        2.9951469482        0.7827377690
 C         -5.0912212143        2.6075198461        2.0227473644
 C         -3.9348578305        4.4782836214        0.8389052136
 H         -4.6541670149        0.9821127434       -1.2888268426
 H         -6.7976022551        0.2518347739       -1.9749373941
 H         -6.9904764637       -1.1144030963       -3.1003526150
 H         -5.5211848930       -0.1134281024       -3.1740695425
 H         -5.0863380351       -3.9780852013        2.0599861808
 H         -5.2726967999       -5.1311836441        0.7160600460
 H         -3.6604121108       -4.4852971948        1.1087690235
 H         -3.3828553762       -2.3378005274        2.1171853930
 H         -2.5959514210       -0.0535781503        2.3058056362
 H         -3.0256639843        2.6862935358       -1.4739769607
 H         -1.7203168790        3.3674866212       -0.5110972021
 H         -1.8984946754        0.4537087638       -1.3963431377
 H         -1.0322321480        1.7286593334       -2.2528762457
 H         -1.1332915581        1.6134141839        1.5154701793
 H          0.4488463252        2.0545610825       -0.1750373857
 H          1.8906430992       -1.0743768372        0.8794597611
 H          2.0520207810        0.7699524920        0.9169461642
 H          3.2995679966        0.1111995326       -3.3504647005
 H          3.1663001546       -1.6219022924       -2.7534724018
 H          5.0442596710        1.5929096568       -2.4633439914
 H          6.9708127971        1.9646679528       -1.0131659504
 H          8.1306507422        2.0955793763        1.0743387038
 H          9.1800890354        1.5388398460       -0.2576318197
 H          9.5481110349        1.0775149920        1.4196134719
 H          6.9526909690       -4.0658621126        1.3484806538
 H          5.2976828555       -3.5230846157        0.9789933672
 H          6.4041251231       -3.9912226348       -0.3442184355
 H          4.7350721228       -2.4522440038       -1.0601359806
 H         -0.3409830987       -1.2742140552       -1.5725327180
 H         -1.2822243549       -1.2476985177       -0.0645969358
 H          0.2825057539       -2.0756993701       -0.1246218332
 H         -4.9286815137        2.8376156780       -0.0929215961
 H         -4.5031211048        2.7873027104        2.9170123755
 H         -5.3783229526        1.5590132360        1.9938095872
 H         -5.9948171909        3.2088386489        2.0766827805
 H         -3.2813676171        4.6778923696        1.6821034362
 H         -3.4543063270        4.8156719247       -0.0753581648
 H         -4.8457163704        5.0566066708        0.9695956830
 H         -1.4471767434        2.9649917225        3.3950694567
