25
 energy: -42.187070394545 gnorm: 0.008223618466 xtb: 6.6.1 (8d0f1dd)
C            3.45824043743536        0.83627762741916       -0.13734514802131
N            2.41938904978721       -0.15218548317321       -0.09756383803586
C            2.57548449611891       -1.47752109599110        0.02191119759973
N            1.35563540009517       -2.07959087032252        0.09518998846711
C            0.40346681453487       -1.10759036260097        0.02961300327268
C            1.06818803312633        0.12519232480487       -0.10635100606715
C            0.35892402976201        1.30569300557552       -0.28858820999027
O           -2.21193025819874        2.89541633202808        0.79136017701026
N           -0.97600887006546        1.17152171487022       -0.24445014946368
C           -1.80888643080672        2.38509739357773       -0.41721439665554
C           -1.68908709838917        0.00012240757860        0.01878417065706
O           -2.88651108695711        0.00047341432914        0.16458322535086
N           -0.94277815675183       -1.18592007436788        0.08790389052067
C           -1.63397623722709       -2.45032221077323        0.24513030052909
H            3.84871347499679        1.01992953419021        0.86625668163718
H            4.27532307907288        0.50555001575291       -0.77687427000918
H            3.03535166808086        1.76237021727768       -0.52273640645251
H            3.51245509234115       -1.99593117062688        0.05549427800630
H           -2.92745742247248        2.37442076526923        1.18748380709779
H           -1.16936514052450        3.13297587419664       -0.89022107356314
H           -2.64375863522415        2.10945238575846       -1.08440596849589
H           -1.29293425517612       -2.96198778305549        1.14574081099515
H           -1.46946613125225       -3.08340660544135       -0.62905060240033
H           -2.69829719427216       -2.23786907100488        0.33589571954259
H            1.19971685606651       -3.07392974367311        0.18062543636785
