25
 energy: -42.244518008882 gnorm: 0.003021164774 xtb: 6.6.1 (8d0f1dd)
C            3.31610710053053        1.58253368310452        0.03635051301975
N            2.56699240486188        0.35266006096287        0.02776018431587
C            3.04950227235718       -0.88298493093670        0.04163008202218
N            2.04100378080478       -1.77589915196415        0.03504521311190
C            0.86561294701340       -1.08589401717074        0.01644781394194
C            1.19788356195230        0.26535033800204        0.01217648640199
C            0.17128887800040        1.27938535515541       -0.01322146810489
O            0.33096538951377        2.47580828440146       -0.02681903874531
N           -1.10740076748880        0.68715048431707       -0.02275718773177
C           -2.25655066608569        1.57550935658192       -0.04436362188974
C           -1.32136025842922       -0.65917089598914       -0.01489159333763
O           -2.58131169921612       -1.00507470619467       -0.02677382788373
N           -0.37631430240818       -1.57155988206179        0.00314264430127
C           -2.89420787658435       -2.39531319437130       -0.01654962202152
H            3.87067018204048        1.68289545486172        0.96997541273289
H            4.02051937083881        1.60478429877567       -0.79481134053122
H            2.61696177407091        2.41355678572712       -0.05493366228306
H            4.09108477098312       -1.13942130592084        0.05532938285646
H           -1.88313184825300        2.59792030138482       -0.04679237214632
H           -2.85268265215143        1.39410456659214       -0.93747366599237
H           -2.87580036866943        1.40642128285387        0.83531112650675
H           -2.45158513806133       -2.88216436117884        0.85304984169543
H           -2.52650892591066       -2.87464972685538       -0.92275970722638
H           -3.98060788614115       -2.44535013538192        0.02548658784034
H            2.12930147052953       -2.78235940309648        0.04161343704807
