25
 energy: -42.089793077730 gnorm: 0.009149652540 xtb: 6.6.1 (8d0f1dd)
C            3.28760902641246        0.86208026638771        0.35110248302520
N            1.98542118673789       -0.87005698215119       -0.94076743650025
C            2.33433930240257       -0.28827126572527        0.35281288794266
N            1.15006836028586       -2.06905017118269       -0.80244008048086
C            0.21733715164948       -1.36881471470813       -0.20803309494483
C            0.95907145902522       -0.08485767714534       -0.20876082842449
C            0.17041051364518        1.16556909363406       -0.43128543561539
O            0.60676304939838        2.19756650712172       -0.85566059364233
N           -1.12293210796158        0.95577224569865       -0.00123932484024
C           -2.00452689536814        2.12419171414876        0.03624092612078
C           -1.76111632962626       -0.24352270372385        0.35183339071135
O           -2.88937373024882       -0.26228271528990        0.73307872106008
N           -1.04523987444305       -1.45876066265288        0.16005983274012
C           -1.76375078615934       -2.72078131363636        0.22291934269390
H            3.28046518922982        1.33659662281334        1.33040569573663
H            4.30037539773221        0.50782858460287        0.16444430560896
H            3.01850783627625        1.60782193378043       -0.39446829677592
H            2.46644693485880       -1.02972442737381        1.13849509928367
H           -1.40713895335864        3.00959049201653       -0.16307708021355
H           -2.78531023676044        2.02692533307244       -0.71686279901541
H           -2.47072241370463        2.19328449188176        1.01727027886945
H           -1.59803291797103       -3.19526728438239        1.18987969943656
H           -1.40087104419546       -3.37307171746214       -0.56882830077699
H           -2.82712077904250       -2.52289350961156        0.10339703243124
H            2.45975217525610       -0.68163359850678       -1.82934480654592
