  72
        -99.36083064
 N         -1.5359722426        2.6823043397        2.4627450564
 C         -1.6409161172        1.9448071934        1.4600622216
 C         -2.8157531929        1.9423066674        0.5217307034
 C         -3.3885008869        0.5363944322        0.4429968736
 C         -4.3138427667        0.2115595623       -0.5512320574
 C         -4.8793282253       -1.0502192854       -0.6290762321
 O         -5.7852799961       -1.4436036169       -1.5504671375
 C         -6.3128542353       -0.4938138173       -2.4457990563
 C         -4.5071004449       -2.0438768953        0.3149967914
 O         -5.1006507111       -3.2461414644        0.1601609883
 C         -4.8634026639       -4.2518761282        1.1170470786
 C         -3.5949327294       -1.7130112986        1.3035491719
 C         -3.0486510883       -0.4378540373        1.3680405343
 C         -2.2458513030        2.3838543211       -0.8536913575
 C         -1.4456898745        1.3024481921       -1.5956930502
 C         -0.1487013360        0.9830640781       -0.9600941762
 N          0.3935927635       -0.2311313473       -0.9277524494
 C          1.6858172140       -0.4298093645       -0.2983275946
 C          2.7608390187        0.4661791025       -0.8386197195
 C          4.0846366084        0.2773009053       -0.6364548910
 C          5.0386688307        1.2198337389       -1.1246585780
 C          6.3778124006        1.0655752559       -0.9533432698
 C          6.9269138960       -0.0734769467       -0.3030028278
 O          8.2558744932       -0.2954944992       -0.1438509736
 C          9.1780912502        0.6678602653       -0.5988757818
 C          6.0823392603       -1.0469950748        0.1908183482
 O          6.6577078223       -2.1198691564        0.7649487299
 C          5.8712320146       -3.1763679642        1.2579974305
 C          4.5927046947       -0.9259837377        0.1146505930
 C         -0.3358285514       -1.3851852565       -1.3968768725
 C         -3.9606440415        2.9077750758        0.9468522465
 C         -4.5454291749        2.5165239599        2.3017730235
 C         -3.5382361372        4.3743622245        0.9728786015
 H         -4.6076720553        0.9638886229       -1.2646269323
 H         -6.7868983323        0.3373931913       -1.9151801187
 H         -7.0645593442       -1.0259730091       -3.0254320395
 H         -5.5444337577       -0.1063471430       -3.1230041404
 H         -5.1575830449       -3.9283375856        2.1199333946
 H         -5.4812634983       -5.0949007923        0.8143418779
 H         -3.8124669691       -4.5589604150        1.1260834520
 H         -3.3113734567       -2.4389734430        2.0482151153
 H         -2.3715768819       -0.2090819175        2.1764538943
 H         -3.0756380001        2.6845754279       -1.4929876113
 H         -1.6130291183        3.2590875752       -0.7021262156
 H         -2.0620691295        0.4115401292       -1.7061112402
 H         -1.2420804153        1.6916017227       -2.6028395643
 H         -0.8505374205        1.2466595703        1.1207355126
 H          0.4656213767        1.8011688368       -0.6191327177
 H          1.9730901542       -1.4762178598       -0.4333930891
 H          1.5852131317       -0.2656209737        0.7882080276
 H          2.4394584458        1.3223058325       -1.4087259480
 H          4.1882672732       -1.8301940540       -0.3563773246
 H          4.6649250159        2.0894342562       -1.6424981740
 H          7.0464704042        1.8199725872       -1.3339701337
 H          9.0427892810        1.6276915325       -0.0905428679
 H          9.1133007189        0.8120655235       -1.6817222761
 H         10.1587225602        0.2663525191       -0.3502375188
 H          6.5772003093       -3.9041115938        1.6539352541
 H          5.2035681859       -2.8486160157        2.0604629995
 H          5.2816972388       -3.6477496600        0.4649415431
 H          4.1950544783       -0.9044599347        1.1393539098
 H         -0.6369749166       -1.2507135533       -2.4367837613
 H         -1.2309390352       -1.5547991505       -0.7907732678
 H          0.2928369531       -2.2696294859       -1.3384251434
 H         -4.7510896922        2.7949489016        0.1954582968
 H         -3.8044893184        2.6575819532        3.0822135202
 H         -4.8707862336        1.4789326572        2.3046891155
 H         -5.4042630350        3.1445762884        2.5231351988
 H         -2.7150537675        4.5156124193        1.6658959874
 H         -3.2460991159        4.7315565726       -0.0109557317
 H         -4.3760452302        4.9790976619        1.3100622658
 H         -0.6799867362        2.6258506488        3.0058869697
