72
 energy: 2.483557350611 xtb: 6.6.1 (8d0f1dd)
N           -1.48579681003094        2.94557583458302        2.21954441742018
C           -1.58259601695047        2.14559275973874        1.24575475186350
C           -2.75909937494105        2.04565723579600        0.31012259170425
C           -3.32155166298860        0.63206617818669        0.41322129156976
C           -4.31180660361863        0.24459996980765       -0.49470925735857
C           -4.83570953244266       -1.03179741960610       -0.50296972372761
O           -5.78421847932548       -1.48311987977363       -1.37181244484354
C           -6.37049550206673       -0.57062268112750       -2.26357971625599
C           -4.37385762891335       -1.98472049171149        0.42933357503677
O           -4.94745812868754       -3.21702421195229        0.33541235934565
C           -4.60679560285507       -4.18331005293091        1.29347293173550
C           -3.42041639696704       -1.59963552722142        1.35145620369370
C           -2.90561740480116       -0.30443848139340        1.34787987627232
C           -2.16237343535832        2.32381669340448       -1.26922457483201
C           -1.29015215668795        1.15078845361417       -1.68810904482742
C           -0.00546388937896        1.15399428439838       -0.94738318568082
N            0.60748167003504       -0.03068298099120       -0.55026155982773
C            1.97686014075163       -0.02004169319688       -0.15708114441266
C            2.91506620344793       -0.53106760343721       -1.27256258827479
C            4.34102610629077       -0.42784867123326       -0.83661922667123
C            5.06040245718235        0.73627580763168       -1.03419169562528
C            6.37183018054286        0.84556805886257       -0.59296590730801
C            6.98136154427860       -0.20775763560614        0.06540354998786
O            8.26341766004735       -0.21563025133840        0.53534680582587
C            9.05598256655466        0.92433527115677        0.32447861320534
C            6.25118048251036       -1.39685773966129        0.28618101324083
O            6.93412542348706       -2.38274969018389        0.93738050608699
C            6.29637036327092       -3.61309796629160        1.15616226243278
C            4.94677205783120       -1.48751015021990       -0.16104695489318
C           -0.08170743282451       -1.28602751553958       -0.62376405956573
C           -3.88813843397187        3.04763844035397        0.62359902868030
C           -4.46420458491516        2.92228701477546        2.02783270993526
C           -3.38337754006562        4.46728234373748        0.42170886601750
H           -4.66970474267632        0.96517495155620       -1.21031809918495
H           -6.84520750402860        0.26547320265608       -1.73985098334528
H           -7.13227654627382       -1.13398480984890       -2.79951043792085
H           -5.64068344604131       -0.18229209159998       -2.98188759993187
H           -4.84325993344052       -3.84778914718512        2.30729048905059
H           -5.21269211807199       -5.05479528551247        1.05141728011737
H           -3.54614731915367       -4.45168352708752        1.24111589774855
H           -3.05738537483282       -2.30228323945256        2.08464638319611
H           -2.17351814352206       -0.05243605044379        2.09996296015564
H           -2.93698500831982        2.43608194621610       -2.04024726478415
H           -1.55151565356891        3.22765249859560       -1.33379389371709
H           -1.87272739798655        0.26177922125299       -1.47251164107295
H           -1.11744788938198        1.21111515531563       -2.77639474009157
H           -0.75551412076209        1.50896610776187        0.89600252699705
H            0.64371709165005        2.00947441491991       -1.01108389759723
H            2.10766636527019       -0.63372304751044        0.74335352497174
H            2.27274821682246        0.99878368724819        0.09990936628880
H            2.74918471787808        0.07282712933785       -2.16544527086059
H            2.65898331978151       -1.56679227223675       -1.50258226518128
H            4.60639174384370        1.56861950102819       -1.55060845657790
H            6.91132384619868        1.76126335284375       -0.77745748112516
H            8.63913291112115        1.80712684366327        0.82139656857552
H            9.18734721051353        1.13889100472596       -0.74226739723802
H           10.02288289579645        0.68903239819603        0.76516936548149
H            7.03467706689192       -4.23843186156280        1.65670041560166
H            5.41866328858615       -3.50440584350768        1.80200773924563
H            5.99913396121976       -4.08989528119427        0.21563735223891
H            4.38160908228847       -2.39273012273972       -0.00180102607303
H           -0.25129012628731       -1.60968091317020       -1.65846055085658
H           -1.04902528464658       -1.21387063234433       -0.12209522933362
H            0.51308086881060       -2.04424703026185       -0.11455398340245
H           -4.71282082452696        2.87037136214211       -0.07639181606313
H           -3.69073799218353        3.12063635203103        2.75989647942278
H           -4.87294057960022        1.93396182734024        2.20262192507430
H           -5.26994697454878        3.64469522652153        2.14526971999502
H           -2.57219511416571        4.65822044006063        1.11727120614071
H           -3.02394372812715        4.60840220060173       -0.58887459981050
H           -4.19608870725177        5.16365293294992        0.59536436868113
H           -0.57789048917856        2.91629486077966        2.68461587308340
