72
 energy: 8.068327231633 xtb: 6.6.1 (8d0f1dd)
N           -1.47932504140396        2.98991885189556        2.21360062611519
C           -1.58683081092365        2.15133478323989        1.27120682912247
C           -2.76209165240173        2.03924716254528        0.33552187843556
C           -3.32008378061254        0.62634885645243        0.43674640531741
C           -4.30991735225202        0.24377868620205       -0.47479451332368
C           -4.82982459471460       -1.03383912213699       -0.49741256132954
O           -5.77403001082448       -1.47989425517826       -1.37434972875820
C           -6.36427309377946       -0.56001111131707       -2.25555316428277
C           -4.36635797997590       -1.99525955863765        0.42489072094302
O           -4.93577515275586       -3.22852284039833        0.31600915295339
C           -4.59252158729930       -4.20329503290831        1.26414322030121
C           -3.41841176787236       -1.61513423202305        1.35475854559338
C           -2.90784233510929       -0.31794473394229        1.36650385126970
C           -2.15521553051084        2.32608464308680       -1.30068992800614
C           -1.29812824668927        1.13800829366765       -1.69470366507746
C           -0.00782808325048        1.15820605735762       -0.97056509070906
N            0.59728147223505       -0.02146727004463       -0.55077969750067
C            1.96784407321163       -0.01416308733064       -0.15616787784236
C            2.90801183117147       -0.52807127050864       -1.26998872681029
C            4.33440156895077       -0.42507735960203       -0.83313578522202
C            5.05529361353702        0.73815267193020       -1.03148396320368
C            6.36713639653657        0.84692220487099       -0.59116071853430
C            6.97624650248903       -0.20685305025581        0.06689428188361
O            8.25844250872884       -0.21550248633267        0.53667458762567
C            9.05192118326413        0.92388799326795        0.32627073167935
C            6.24540495157305       -1.39521232928550        0.28784580415712
O            6.92864251175672       -2.38207998783530        0.93838224091870
C            6.29079868913169       -3.61235261895429        1.15601222298606
C            4.94074171007602       -1.48520761481235       -0.15915111417101
C           -0.08909509496513       -1.27979699856156       -0.62467953340101
C           -3.89122263147039        3.04319278112265        0.63768894854817
C           -4.45562709990868        2.96064022785461        2.05000552288744
C           -3.37958972019236        4.45182334864607        0.38889861001041
H           -4.66582905503368        0.96968831913160       -1.18604537837568
H           -6.84288492212730        0.26823303391520       -1.72298210430207
H           -7.12363635586780       -1.12023651608287       -2.79823192622380
H           -5.63586327202209       -0.16066216430585       -2.96913807732468
H           -4.83168121146699       -3.87948749587683        2.28102140517991
H           -5.19420551470324       -5.07492539931960        1.01223912346912
H           -3.53051069617943       -4.46593183439045        1.21101114811385
H           -3.05348144352084       -2.32487865073084        2.08010566359143
H           -2.17815228694496       -0.07364036334319        2.12326066855399
H           -2.91795691899390        2.44644292390362       -2.08587746321473
H           -1.52882602566843        3.22115589569565       -1.37196708706732
H           -1.88874311027858        0.26689680538900       -1.43603987654342
H           -1.14575819928594        1.16258299465584       -2.78889682372199
H           -0.77389227595936        1.47796152481455        0.96655848422757
H            0.64036056525306        2.01492993833035       -1.03296774742701
H            2.09992529751324       -0.62582824275806        0.74616146806402
H            2.26413563881212        1.00398350300058        0.09997562187090
H            2.74395363448695        0.07505476370786       -2.16348375774535
H            2.65232297000383       -1.56395632488217       -1.49916387566018
H            4.60169444098693        1.57052117187325       -1.54821059043198
H            6.90762785941249        1.76207089855479       -0.77609582596388
H            8.63548062945597        1.80657972228185        0.82363801616910
H            9.18380894321033        1.13936432761999       -0.74028767726667
H           10.01868492562935        0.68832268798869        0.76705342537971
H            7.02894933460563       -4.23857251254961        1.65582943862915
H            5.41318257548545       -3.50380152926833        1.80191606399046
H            5.99321621908366       -4.08820383571017        0.21508592901666
H            4.37528621452201       -2.38999906224400        0.00061658608169
H           -0.25846423618442       -1.60714382917773       -1.65862238300049
H           -1.05680552356229       -1.20740617086674       -0.12429762567370
H            0.50294781552057       -2.03880364352512       -0.11213318172853
H           -4.72689974049929        2.85010350095991       -0.04567997666105
H           -3.67428229306953        3.17523078861349        2.76857640459058
H           -4.87129334321676        1.98154843543460        2.25878407968897
H           -5.25579999517868        3.69204368537947        2.15087419994433
H           -2.56379634859848        4.65225793577965        1.07612171390846
H           -3.01966789369529        4.55325715698682       -0.62589761522794
H           -4.18615827802780        5.15979941436316        0.53991508210312
H           -0.56835857884836        2.94488140468203        2.67075203197055
