72
 energy: 54.457272335114 xtb: 6.6.1 (8d0f1dd)
N           -1.34104585894665        3.26301363365965        2.10346919720439
C           -1.77069248853413        2.07789034684536        1.81773111912674
C           -3.03543650797025        1.83370212775572        1.25089281625569
C           -3.44405581438710        0.49090532704465        0.94922412852245
C           -4.35688922619365        0.20717302289482       -0.09606454083846
C           -4.76184587175687       -1.07666804252199       -0.38653719393119
O           -5.62638771220315       -1.42216065952914       -1.38769977900555
C           -6.26331193468408       -0.40441323191345       -2.11508283375253
C           -4.26946555857563       -2.16384213357520        0.37225385859438
O           -4.73919847881601       -3.39834085284869        0.01408968699264
C           -4.36065062044232       -4.50803573353902        0.78291001628132
C           -3.37322844602569       -1.90468757855168        1.39662952872075
C           -2.96485991174716       -0.61275984159578        1.67508907119527
C           -1.73568737024535        2.49009216647749       -2.37402756377550
C           -1.31995181050680        1.19187447918166       -1.83521291442800
C           -0.00513965294763        1.14398237881624       -1.20034111520095
N            0.51451099430246        0.06222115729820       -0.60899557921444
C            1.88418180188868        0.06387311344016       -0.16310378396133
C            2.83718211957668       -0.49158932924278       -1.24226675181756
C            4.26685083004887       -0.39551850824359       -0.79081486049356
C            4.99367210056287        0.76135920489067       -0.99659292442984
C            6.31022358083658        0.85992064623908       -0.56745023578919
C            6.91914020851176       -0.20052903328681        0.07911125999371
O            8.19964496721053       -0.22012031760205        0.53542982275836
C            9.00552143614714        0.91416571287708        0.33692147856908
C            6.18255948991803       -1.38818933087143        0.29914513275006
O            6.86338046731481       -2.37850267986873        0.93626916907803
C            6.22105667067981       -3.60630413249474        1.16609103904200
C            4.87168775203947       -1.46644698950122       -0.13392031712271
C           -0.19141460890377       -1.18870981578189       -0.64320952109274
C           -3.96689231246950        2.99195652989598        0.99034515612995
C           -4.34284267404477        3.65775563595000        2.32195412746133
C           -3.34815445129651        4.02110426620810        0.04106754528432
H           -4.72601682828313        1.02339773182212       -0.69574241689709
H           -6.82726036518404        0.26972513078413       -1.46181468286370
H           -6.95359829870837       -0.91591504074109       -2.78515217094932
H           -5.55178396123265        0.17964936291635       -2.70987749557499
H           -4.67044123682697       -4.40466717443449        1.82882198939670
H           -4.87602519583415       -5.35895546322670        0.33898661798307
H           -3.27894470673699       -4.68256307225449        0.74297663737768
H           -2.99955844716978       -2.71145015198725        2.00931823365736
H           -2.30528599529005       -0.45457220552388        2.51399883110555
H           -2.53644522872180        2.55059223370881       -3.08064908523972
H           -1.13054240349665        3.35899201669987       -2.20462805881053
H           -2.06592628851991        0.85680167477684       -1.08765927546070
H           -1.37956440693495        0.41546990722871       -2.61172739226191
H           -1.13707830816529        1.18612001615486        1.96463336602335
H            0.56870706906979        2.05427349707542       -1.12567999042359
H            1.96678035015530       -0.54043780155614        0.74393247540943
H            2.18045278062209        1.08658653587283        0.07818729013092
H            2.69789816995832        0.08927380569694       -2.15627080160113
H            2.57892589078208       -1.53085993627808       -1.45249859656031
H            4.54287157734459        1.59921520673475       -1.50706326014995
H            6.85290410304732        1.77337978444538       -0.75087506199873
H            8.59752750127510        1.79535638856120        0.84306787509140
H            9.13820839731691        1.13519009343936       -0.72745634022713
H            9.97063639116512        0.66369991961683        0.77464847690131
H            6.96108558718443       -4.23187610845512        1.66290484679618
H            5.34928761459985       -3.49274107052762        1.81948007998597
H            5.91487206561578       -4.08512345335238        0.22974901983645
H            4.30308470299873       -2.37041791303878        0.02245082072580
H           -0.34511285490041       -1.53441082597645       -1.67093831996934
H           -1.17310849092048       -1.07944967162147       -0.17146557630398
H            0.37695585128027       -1.94026393915790       -0.10112652425854
H           -4.89248294317290        2.61275248744042        0.54476617821759
H           -3.44908135620294        4.05567947082391        2.79256133608162
H           -4.80404249233546        2.93373733446747        2.99283922228106
H           -5.04636629717973        4.47026227183208        2.14970409414360
H           -2.47275269134629        4.45744280883373        0.51221798638409
H           -3.03723372624908        3.54017775191895       -0.89065617747709
H           -4.06213131144846        4.81033107406515       -0.18775989528861
H           -0.39997613302036        3.29071662165366        2.48897783379772
