72
 energy: 44.788448692960 xtb: 6.6.1 (8d0f1dd)
N           -1.45334023992651        3.15675206809563        2.15210643666214
C           -1.63689142681442        2.14929857055797        1.38801117016950
C           -2.82543274523637        1.97394702683441        0.56488902707638
C           -3.33810884534033        0.59408443547356        0.54800382419797
C           -4.32257201721849        0.23639748266747       -0.38804027600611
C           -4.81760467651054       -1.04598251459293       -0.46771693742653
O           -5.74254727829927       -1.46846774678029       -1.37853084276053
C           -6.33917162341016       -0.52029613869763       -2.22243022315974
C           -4.34168268678309       -2.03984300866355        0.41056927059395
O           -4.89176948749939       -3.27840697230152        0.24198504239542
C           -4.53570963918853       -4.28443251630810        1.14859908471577
C           -3.41123974591590       -1.68451397736236        1.36978919444230
C           -2.92061878829047       -0.38723151617780        1.44118716198286
C           -2.06734963802871        2.38451704083866       -1.54808959965549
C           -1.32153906204421        1.10730143489451       -1.71224459768622
C           -0.00065373816046        1.14188958547061       -1.06621719067982
N            0.57386252815399        0.00986742393716       -0.56725624354287
C            1.95104892199162        0.00543580944116       -0.15563953604184
C            2.88761184571423       -0.51935883960674       -1.26583718284779
C            4.31913168994720       -0.41706545985698       -0.82333699376199
C            5.04027390122713        0.74517652142867       -1.02134783756189
C            6.35248674512970        0.85224112949949       -0.58041969178062
C            6.95863966300696       -0.20547087699627        0.07303556715918
O            8.24127910135527       -0.21705954012473        0.53788787049057
C            9.03856641958281        0.92058451714588        0.32965890850491
C            6.22795944500771       -1.39385601190069        0.29349880177371
O            6.91065870293051       -2.38161266947889        0.94178937703150
C            6.27202645785146       -3.61054778631145        1.16026683970466
C            4.92279294099018       -1.48131961739709       -0.15474771753994
C           -0.11626692012294       -1.25616466038825       -0.63142585318352
C           -3.91440352392958        3.02610213504771        0.70977763204888
C           -4.42934013999838        3.12362749685558        2.13557574072462
C           -3.37649031902482        4.37761929842928        0.26670293254298
H           -4.67999531180097        0.98830859859331       -1.07189662264468
H           -6.83989717646856        0.27347048323824       -1.65904802329100
H           -7.08084483524491       -1.06650881033290       -2.80280072897599
H           -5.60918003346108       -0.07408898067924       -2.90605342554536
H           -4.79255154336481       -4.01465086890807        2.17644330515621
H           -5.11292934013311       -5.15814475363233        0.85041412015882
H           -3.46669952885820       -4.51923211448284        1.09781112754094
H           -3.04155674154382       -2.41569593416790        2.06804894628533
H           -2.20878126546061       -0.15537411157697        2.21724035128058
H           -2.82246448521902        2.49794517378389       -2.32609108460201
H           -1.39802166681994        3.23488873231161       -1.55662935397409
H           -1.94876961579434        0.33861286259943       -1.27483646622235
H           -1.23202601895563        0.95127825375390       -2.79678075518434
H           -0.86708979550266        1.37884400390893        1.25062534226423
H            0.63566884446351        2.01475278897542       -1.10805612469937
H            2.06666915134727       -0.60665462884911        0.74398961820881
H            2.24117551770005        1.02365103397433        0.09547161629752
H            2.72923968549098        0.07963366741178       -2.16242033229773
H            2.63062872047707       -1.55585578838998       -1.49145802678169
H            4.58590510631535        1.57650146983077       -1.53725927920587
H            6.89488436848284        1.76682306976108       -0.76248626726767
H            8.62456600307097        1.80371907325364        0.82815892088117
H            9.17089423579218        1.13773144299592       -0.73649393430186
H           10.00508747223516        0.68434383577691        0.77020163617008
H            7.00946967089691       -4.23864380423677        1.65946469887647
H            5.39538657837606       -3.50021865280682        1.80666477629743
H            5.97296842080631       -4.08620336018880        0.21974156862530
H            4.35602015056560       -2.38480483048216        0.00224768982194
H           -0.28728275249928       -1.58820978610997       -1.66298654870710
H           -1.08665772757992       -1.17741128588170       -0.13984359859740
H            0.45959883844945       -2.02400714272304       -0.11118999878186
H           -4.77640121956707        2.76773656101230        0.08412720117002
H           -3.61468651953273        3.39815989653572        2.79209757638940
H           -4.86464018607610        2.18892148132404        2.47334783438805
H           -5.20406151581133        3.88419540204615        2.16279427892361
H           -2.54310566240196        4.62359692966119        0.91507393728411
H           -3.02176543192488        4.31767745661611       -0.74929373371974
H           -4.15531510218772        5.12560571211758        0.32614093790069
H           -0.54266744096739        3.10048612325184        2.60400567478360
