72
 energy: 35.590961702430 xtb: 6.6.1 (8d0f1dd)
N           -1.46781603848511        3.11789561789143        2.17059380960404
C           -1.61990667452662        2.15796075399650        1.34883437807952
C           -2.80218300271754        1.99314032524178        0.48214827535802
C           -3.32894863073849        0.60075597378506        0.51438966918735
C           -4.31911515121642        0.23792721800735       -0.41066587432438
C           -4.82185326823575       -1.04317834572550       -0.47498509111578
O           -5.75038787746543       -1.47215530923912       -1.37846113104724
C           -6.34552033500193       -0.53022861558202       -2.23098642580189
C           -4.34877167041084       -2.02853663692797        0.41505192285133
O           -4.90301355798992       -3.26575778891198        0.26133416084955
C           -4.54971852430074       -4.26491357378530        1.17790403014470
C           -3.41501759244931       -1.66525231922667        1.36746235230316
C           -2.91756999640534       -0.36728681632933        1.42186978641837
C           -2.09637472057472        2.36365855387735       -1.46734711334533
C           -1.31582199006489        1.11503723625301       -1.71458840812074
C           -0.00327322692130        1.15893422477343       -1.04895397850029
N            0.57707896655255        0.00646666123935       -0.56275059220132
C            1.95111728275387        0.00171786782347       -0.15811870082289
C            2.89206963897836       -0.52183800924347       -1.26796389017159
C            4.32206345896834       -0.41905479108417       -0.82644975104566
C            5.04394971352036        0.74306731081928       -1.02366558634268
C            6.35615391577713        0.85080300648630       -0.58303304023185
C            6.96309528588668       -0.20587389435765        0.07139810487479
O            8.24575895811000       -0.21688171007234        0.53825580219308
C            9.04183952883626        0.92124448851990        0.32861061353286
C            6.23102934041297       -1.39313189231493        0.29197859570512
O            6.91469885715884       -2.38148653486943        0.94115139086637
C            6.27697234272180       -3.61104466661795        1.15942424076677
C            4.92664539130287       -1.48201071498528       -0.15670443547892
C           -0.10950862419738       -1.25904714886736       -0.63100790493529
C           -3.90665219427767        3.02860148242435        0.68897661088276
C           -4.43442796943069        3.07975045797302        2.11446052520625
C           -3.37701472680971        4.39824577428120        0.29593632279640
H           -4.67773822130520        0.98315833063040       -1.10095236255138
H           -6.84100624882673        0.27204605723361       -1.67489862157790
H           -7.09123092402501       -1.07983521820474       -2.80275984647794
H           -5.61510676680002       -0.09539652227218       -2.92138709320846
H           -4.80259997930194       -3.98224745070256        2.20323357546718
H           -5.13273994565291       -5.13835351061345        0.89044368989700
H           -3.48227733933552       -4.50567282526918        1.12629514890606
H           -3.04573812876310       -2.39091842777002        2.07250993398828
H           -2.20112469879274       -0.13297357647065        2.19317399183404
H           -2.84801173836480        2.48253450483026       -2.25448084370065
H           -1.43348992188289        3.22462037743150       -1.50212538445944
H           -1.93232430228385        0.31660378472282       -1.31700079207216
H           -1.21205495582896        1.00790207830997       -2.80313388903531
H           -0.84084156951894        1.40347699376860        1.17527618583044
H            0.63832926835464        2.02350093374668       -1.09114968685864
H            2.07399157876037       -0.61113304387387        0.74243844807928
H            2.24673393760953        1.01839762480002        0.09513581963228
H            2.73274374750266        0.07842142481952       -2.16313334222549
H            2.63584701714310       -1.55842997568067       -1.49397153164237
H            4.59005226462015        1.57491287900180       -1.53979102056219
H            6.89812626646072        1.76558346818623       -0.76555177790686
H            8.62727510577760        1.80443121422757        0.82656011368771
H            9.17393431032839        1.13780467797066       -0.73777399238466
H           10.00859022218398        0.68573842404561        0.76896066126502
H            7.01478978768818       -4.23848939139817        1.65887236223347
H            5.40008797388328       -3.50127112640276        1.80565786129324
H            5.97837582484592       -4.08698685550157        0.21886842937633
H            4.36087762163814       -2.38610199975347        0.00157644595061
H           -0.28158742211046       -1.59336579577983       -1.66228850704165
H           -1.07887058992542       -1.18451643364595       -0.13645447909622
H            0.46986314180280       -2.02619144276527       -0.11224958201874
H           -4.76588906276059        2.78803395107522        0.05026848060395
H           -3.62832961693421        3.34091760585364        2.78784113900600
H           -4.86630414604119        2.13306717154248        2.42204403495462
H           -5.21628782408648        3.83414909980189        2.15996366722783
H           -2.54832718213051        4.63145670653941        0.95566910854589
H           -3.01958107626620        4.38254283173056       -0.72241491206766
H           -4.16441161260735        5.13570904960655        0.38014773404302
H           -0.55022870306821        3.06086946917932        2.61004028701661
