72
 energy: 58.469281795275 xtb: 6.6.1 (8d0f1dd)
N           -1.32314137683898        3.27050143429630        2.02535968835497
C           -1.70335314008913        2.11487172420542        1.59985236212833
C           -2.92176878724264        1.90052495309362        0.92567249460484
C           -3.37750016575260        0.55114348706716        0.73073355017956
C           -4.33504720086149        0.22483505324288       -0.25967907635090
C           -4.79304538198810       -1.06152302996315       -0.43528305721405
O           -5.69437930051703       -1.44790938195659       -1.38553930161524
C           -6.30693080372895       -0.46102934774577       -2.17311697242282
C           -4.30696323220570       -2.09956283460312        0.38792888241816
O           -4.81899516696516       -3.33576971456320        0.13854895960696
C           -4.44939347429023       -4.39659435924871        0.97562477706771
C           -3.39057764212802       -1.78811608111460        1.37638703305866
C           -2.93161259393680       -0.49616020822650        1.54249246865418
C           -1.92075834766484        2.46794990186430       -1.95084094057937
C           -1.34453529533440        1.13461893049843       -1.74590446404633
C            0.00273764328699        1.09906942829558       -1.18769047488261
N            0.53226123811110        0.03614938596183       -0.58062118697445
C            1.91260107071839        0.03983381051197       -0.15963749935871
C            2.85752908012143       -0.50146415710982       -1.25148467707191
C            4.28979626464417       -0.40405757836892       -0.80311802605520
C            5.01630697548193        0.75384956792863       -1.00617952951385
C            6.33114482499568        0.85616032373243       -0.57028483301465
C            6.94227564775221       -0.20376287333750        0.07725473770818
O            8.22136316794246       -0.21820228535252        0.53787821955047
C            9.02216368462564        0.91879766138566        0.33593472051731
C            6.20629088000202       -1.39259274125972        0.29544614737536
O            6.88664357891542       -2.38075710308188        0.93808184223718
C            6.24343357031392       -3.60898671297843        1.16141768083791
C            4.89663746947825       -1.47339482041418       -0.14413128894917
C           -0.15751894181477       -1.22575671498766       -0.63129120722289
C           -3.92937506921009        3.01482498711372        0.82863955738974
C           -4.37365716019055        3.37967600972663        2.23487108811608
C           -3.37599561762074        4.24097464784032        0.10429533993375
H           -4.69973737370737        1.01124419169055       -0.90395048245569
H           -6.83697486654099        0.27737035525583       -1.56404793165129
H           -7.02311786854572       -0.98550057299789       -2.80356236451529
H           -5.57913336124749        0.05042164090199       -2.81103486989284
H           -4.73103652717163       -4.20893162891764        2.01488508998457
H           -4.99340834910558       -5.26496367371292        0.60598049232946
H           -3.37351320619826       -4.59833104315348        0.92665650071121
H           -3.02510126109370       -2.55206798141510        2.03966878126842
H           -2.25579675813145       -0.28778916184400        2.35353260435335
H           -2.67210308280391        2.53955533613542       -2.71132501885262
H           -1.24938485655670        3.29542491405123       -1.86218989435334
H           -2.03657858357268        0.55112030002733       -1.11179353634583
H           -1.31739080559001        0.64623043926549       -2.73457938769998
H           -1.05549165203674        1.21924152500409        1.64992583843900
H            0.56976681441554        2.01250685114517       -1.13662581470330
H            2.01520142714929       -0.57120950572612        0.74144442434176
H            2.20890170347593        1.05948355626270        0.08635366368416
H            2.71240419302056        0.08808007534390       -2.15946892298616
H            2.60358917110491       -1.54027947155327       -1.47147982035987
H            4.56649034147224        1.58975851467538       -1.51997246044029
H            6.87253123450880        1.77236477114291       -0.74902218439238
H            8.61021158561521        1.79949451035721        0.83942348941806
H            9.15294295951193        1.13838909827048       -0.72904896842887
H            9.98746751711654        0.67459194390657        0.77401254269202
H            6.97926807066128       -4.23956177235913        1.65918977894192
H            5.36863608208092       -3.49541333285529        1.81032344559721
H            5.94028433813527       -4.08292080837311        0.22175228201802
H            4.32945187391308       -2.37831343863889        0.01030235548390
H           -0.31447197453599       -1.55168449545262       -1.66386955155594
H           -1.13525776728458       -1.13528193235237       -0.15357349440066
H            0.41547809355184       -1.98512833837936       -0.10339243953938
H           -4.82428833170408        2.66602325136961        0.29694619470554
H           -3.51912144453550        3.72829080162209        2.79942352134988
H           -4.81854103541072        2.53299548036415        2.75033345143397
H           -5.11235748984208        4.16853583143445        2.17225101375545
H           -2.51199153866214        4.59279062026515        0.66368762178132
H           -3.05631652170107        3.94222142078251       -0.88599164322480
H           -4.11510725221043        5.03512833400788        0.01044051692125
H           -0.47996377339505        3.26064703231777        2.58906115705666
