72
 energy: 54.637476688763 xtb: 6.6.1 (8d0f1dd)
N           -1.32901120073731        3.26844002694593        2.06911690405288
C           -1.77654185069532        2.07981332756171        1.83588160516630
C           -3.03654399091804        1.83645434515383        1.25945124388987
C           -3.44184167074690        0.49271382498506        0.95830659478061
C           -4.35323049141795        0.20951699720278       -0.08916489812694
C           -4.75716127609554       -1.07406243570101       -0.38411737716551
O           -5.62107686011671       -1.41894940892808       -1.38713501844511
C           -6.26034622969563       -0.40039240549938       -2.10998225457590
C           -4.26652254609824       -2.16371844345549        0.37097002707152
O           -4.73063657906487       -3.39825475910622        0.00423786714214
C           -4.35068042907294       -4.51169804211463        0.76623674112760
C           -3.37240878716039       -1.90552060630099        1.39733487755209
C           -2.96508975971250       -0.61466485852905        1.68058682059080
C           -1.76488267152010        2.49960842422337       -2.33229138079702
C           -1.32160347822844        1.19397147803101       -1.83006872490968
C           -0.00379049943989        1.14333150790747       -1.20232933272184
N            0.51490522443338        0.06126974875620       -0.60928231029649
C            1.88395093929207        0.06415435825602       -0.16056678811079
C            2.83615288893756       -0.49011210129314       -1.24073794222316
C            4.26560169151434       -0.39440487248443       -0.78975215800279
C            4.99237783533901        0.76233736801506       -0.99508163367992
C            6.30891801169873        0.86041820919085       -0.56580883750658
C            6.91781113625207       -0.20037764713334        0.08003365057843
O            8.19894644248557       -0.22089073297025        0.53628455894768
C            9.00454873089364        0.91351104341988        0.33854507199771
C            6.18181196873893       -1.38804422879504        0.29845684484854
O            6.86425613941259       -2.37899226101333        0.93377910120855
C            6.22229836349053       -3.60690975111904        1.16277622683349
C            4.87088266595777       -1.46588690243161       -0.13441271686902
C           -0.19069840215734       -1.19041713667434       -0.64196013558782
C           -3.96615359179917        2.99343913161097        0.99137403247954
C           -4.33655942953723        3.66735846495037        2.31772930410916
C           -3.35287213251136        4.01752552196017        0.03671377034604
H           -4.72636148474106        1.02650118164141       -0.68606255638912
H           -6.82932125687226        0.26845761518080       -1.45614926246775
H           -6.94695609236348       -0.91140462889157       -2.78396261397279
H           -5.54957659263150        0.18967109831347       -2.69868746917880
H           -4.66411316990248       -4.42106660792447        1.81207445173896
H           -4.86437838217572       -5.35886475032669        0.31561627977717
H           -3.26849884888321       -4.68397243326626        0.72782462266608
H           -2.99797652943286       -2.71434401054175        2.00592448108603
H           -2.30736581460225       -0.45943563460841        2.52067094086879
H           -2.51050147503801        2.54029373354304       -3.09876219854620
H           -1.13277374673210        3.35732687345794       -2.20352275326343
H           -2.06538202585835        0.82296690432156       -1.10035823423207
H           -1.36485809734829        0.44252614048719       -2.63049834050519
H           -1.15166161889046        1.18957227041928        2.02025910162045
H            0.57294923067577        2.05243563005635       -1.12813703943832
H            1.96770739837304       -0.54186668657144        0.74549628684848
H            2.18203574413241        1.08620294754669        0.08232000982074
H            2.69756523496035        0.09046135083445       -2.15518204273243
H            2.57729214934888       -1.52905282061804       -1.45152662125186
H            4.54138042130582        1.60024861028563       -1.50524041530750
H            6.85181936276403        1.77375142202909       -0.74848902159498
H            8.59705670693785        1.79476524248239        0.84526472834608
H            9.13794575177277        1.13623777475336       -0.72559524739302
H            9.96981900639440        0.66315379696588        0.77598749525992
H            6.96219966916852       -4.23270689734474        1.65950958610966
H            5.35042558250086       -3.49436276370394        1.81624380332591
H            5.91635466716759       -4.08527288525225        0.22603084990567
H            4.30271731152728       -2.37023341354725        0.02036764285373
H           -0.34464430655337       -1.53565838519067       -1.66993147207531
H           -1.17238353242705       -1.08222159253047       -0.16981471112436
H            0.37870382296731       -1.94148000710402       -0.10011230605585
H           -4.89509287422977        2.60617093598744        0.55742078918408
H           -3.44450302319788        4.06187800129334        2.79149684254890
H           -4.79687897978376        2.93928779626828        2.98385584516846
H           -5.04245049321627        4.47800517292022        2.14511248683905
H           -2.47999632565782        4.45762728829914        0.50833936671806
H           -3.03279422169141        3.53029071768396       -0.88787036137449
H           -4.06502140257691        4.80914926500408       -0.19627952425470
H           -0.39440972206872        3.29233957597994        2.46622694284736
