72
 energy: -5.724221119011 xtb: 6.6.1 (8d0f1dd)
N           -1.49223441868602        2.81428783109031        2.23613541625651
C           -1.55777843800629        2.14989550700081        1.17003494858457
C           -2.74740417059170        2.05723118012205        0.25642832518730
C           -3.31755555617958        0.64549389951516        0.34658167584460
C           -4.30542054901998        0.24622569424542       -0.55664330542372
C           -4.84524935641440       -1.02436166471274       -0.52406383899235
O           -5.81041138142423       -1.48800177317060       -1.36637953242975
C           -6.38975902289485       -0.59970171594443       -2.28715228834948
C           -4.39188470205901       -1.95265147046542        0.43923665477698
O           -4.98079486530083       -3.17973489203918        0.39147486894553
C           -4.64920836535776       -4.12071154910951        1.37923154232477
C           -3.42157181015335       -1.55685594713072        1.33900406858370
C           -2.89238690452775       -0.27042175752981        1.29367599765489
C           -2.18972029667536        2.30636097275646       -1.20312451999530
C           -1.26796588683291        1.17594590799116       -1.67246600891833
C            0.00153022570430        1.13491535978273       -0.90364165714240
N            0.62831661531944       -0.04331262539224       -0.55931277343657
C            1.99646092363839       -0.03079419038609       -0.15792556262164
C            2.93122707995325       -0.53796275063534       -1.27711622129825
C            4.35576654445033       -0.43219765311107       -0.83859869541776
C            5.07205866008996        0.73272579528679       -1.04038525950725
C            6.38287353601208        0.84336640457137       -0.60037360440354
C            6.99287370583450       -0.20848812303202        0.05936232825114
O            8.27247477475532       -0.21245319081718        0.52936930564849
C            9.06562997677910        0.92706830548556        0.32095027738663
C            6.26517478294467       -1.39965825531104        0.28165857087871
O            6.94803314478777       -2.38295656148350        0.93289053652391
C            6.31103430278964       -3.61411868290122        1.15395997449777
C            4.96064613079337       -1.49202734601201       -0.16273107661178
C           -0.05917133304560       -1.29959404546468       -0.62115934320651
C           -3.87379149595134        3.06903564152180        0.59201151546555
C           -4.48745318574233        2.81157290713080        1.96512416476881
C           -3.39017342498338        4.51308769246822        0.51800995494525
H           -4.66067600199995        0.94987397078085       -1.29095683236307
H           -6.84851733210222        0.26047238541482       -1.78829210439061
H           -7.16372426700037       -1.17279274851361       -2.79511068652164
H           -5.66167134804785       -0.24725719071441       -3.02583500375940
H           -4.87264822265886       -3.74814395319820        2.38410597424946
H           -5.27185417031061       -4.98918204661243        1.17073335217542
H           -3.59426079076227       -4.41116114900441        1.32641599148331
H           -3.06650935762252       -2.23947600227615        2.09505468258393
H           -2.15169328138754        0.00365439034958        2.02958396984694
H           -3.00372177541600        2.39282489104006       -1.92622129814456
H           -1.62929662809640        3.24219856742956       -1.23613323320485
H           -1.82146890932645        0.24295355852408       -1.58777995301110
H           -1.03504385788329        1.34172197402190       -2.73339086240601
H           -0.70066143996655        1.61579962984240        0.70007643792740
H            0.64644929132750        1.99446994412255       -0.95706690619606
H            2.11571248283349       -0.65791762829965        0.73285904314353
H            2.29434084133678        0.98731297258337        0.10712010382554
H            2.76215000410893        0.06932274921196       -2.16812752559065
H            2.67468925234818       -1.57258966770575       -1.50998523064434
H            4.61757347460034        1.56380807935428       -1.55896499252047
H            6.92094850906354        1.75897554667764       -0.78669897551877
H            8.64823356890574        1.80957454311897        0.81790923469463
H            9.19791252214441        1.13992361114321       -0.74555313836874
H           10.03206941341583        0.69028210963084        0.76270105174905
H            7.05025481301725       -4.23694330835766        1.65558774001497
H            5.43297833860354       -3.50666456327945        1.80013014625347
H            6.01503037487596       -4.09272145870253        0.21401686685752
H            4.39589218512954       -2.39812258809597       -0.00480402580586
H           -0.22967340829390       -1.62009326325520       -1.65527235766152
H           -1.02531328282145       -1.23433060362505       -0.11307314831162
H            0.54754212957686       -2.05107346332117       -0.12006651956509
H           -4.66347840168077        2.93609954155689       -0.15611837333536
H           -3.74025433686435        2.95696624074950        2.73779767215050
H           -4.87404660027325        1.79948304642881        2.03421649416184
H           -5.30969096495974        3.50396943929213        2.13202772517011
H           -2.59179372071655        4.67855529937765        1.23508508915917
H           -3.03491491281835        4.76517055263673       -0.47615115864830
H           -4.21684649490302        5.17677316752257        0.75543977148350
H           -0.59466533199019        2.80688050094330        2.71958621002118
