72
 energy: 56.841931417205 xtb: 6.6.1 (8d0f1dd)
N           -1.26939262481579        3.28628026885399        1.97336231079606
C           -1.74812839493226        2.10651675738230        1.74503462021306
C           -2.97695834803508        1.86955525603121        1.10611924666771
C           -3.40558006314213        0.52014790619755        0.84781293230490
C           -4.34232920022169        0.21287981537848       -0.17129720168897
C           -4.77267568437491       -1.07358815434404       -0.40879793703403
O           -5.65447288913417       -1.43182953070695       -1.39150141983979
C           -6.28200028448132       -0.42134867077225       -2.13884196175652
C           -4.28123293701531       -2.14255652250530        0.37334709876060
O           -4.77098789906030       -3.37755896019109        0.06363492632361
C           -4.39127981832279       -4.46824498527966        0.85739098474697
C           -3.38039547056635       -1.85400371892549        1.38404936581156
C           -2.94590796945296       -0.56219679108008        1.60891205244626
C           -1.84473667089367        2.48964752282342       -2.16849414980212
C           -1.33741241572219        1.16828446196956       -1.79807964657362
C            0.02151228271429        1.10420007160171       -1.26716937542023
N            0.50793620612948        0.06632258896623       -0.57345197808378
C            1.88742465443549        0.06385696180327       -0.15596826173861
C            2.83602091101393       -0.49135687728545       -1.24023444016000
C            4.26798400463833       -0.39597561701866       -0.79118023164429
C            4.99766203790971        0.75900547695848       -0.99824701218199
C            6.31377356343220        0.85763673811954       -0.56765110807745
C            6.92360991653475       -0.20188444718943        0.07852324898338
O            8.20391589356972       -0.21964165602685        0.53667370500980
C            9.00814374248085        0.91595654623373        0.33737094187204
C            6.18611120430022       -1.38882825994871        0.29662866628030
O            6.86653733827655       -2.37959986721211        0.93652165125920
C            6.22353927664922       -3.60737667436060        1.16411170873047
C            4.87586993798224       -1.46756668425547       -0.13767960691138
C           -0.18075122844540       -1.19426773323550       -0.62376540419704
C           -3.94507750060299        3.00581235964613        0.91954356266048
C           -4.33267074899757        3.54627474510940        2.29057884664308
C           -3.37401209656719        4.11228892400780        0.03357572670719
H           -4.71177368558867        1.01533750239347       -0.79263056088358
H           -6.83509104475985        0.27675561185994       -1.50137670923645
H           -6.98064452243590       -0.93257254897598       -2.79928547343410
H           -5.56041722613710        0.13480353171479       -2.74698502196678
H           -4.69032978593789       -4.33855059976751        1.90203416638133
H           -4.91441703736800       -5.32740386099344        0.43790038022529
H           -3.31137521717938       -4.64932122857978        0.81308996812419
H           -3.01423656822831       -2.63694554824371        2.02757275396902
H           -2.28453509232182       -0.37793658481306        2.43754366993743
H           -2.57797438001648        2.54685533548751       -2.94332033040610
H           -1.18557253362337        3.32601126069526       -2.05307777383696
H           -2.04485023333061        0.73317028240161       -1.05915732806727
H           -1.39062178045768        0.48440205703094       -2.65261592892062
H           -1.16288696016248        1.19393459514789        1.94004320125849
H            0.56608841652467        2.03177404941349       -1.17234986757272
H            1.98437315824553       -0.54578876563342        0.74685371379048
H            2.19322777638084        1.08461345636165        0.08568637056085
H            2.69575647895664        0.08895802349583       -2.15480984284949
H            2.58215741535369       -1.53162014155320       -1.45631769955259
H            4.55007957777751        1.59724750008185       -1.51037314629396
H            6.85598269282786        1.77262615308242       -0.74709711515121
H            8.59938549688089        1.79633394514466        0.84419748072137
H            9.13935071365037        1.13631063688158       -0.72715160397754
H            9.97371166858968        0.66679896631936        0.77426622038036
H            6.96125018414655       -4.23537247177551        1.66112278625889
H            5.35141500873273       -3.49344471203887        1.81673427895957
H            5.91860365852593       -4.08402723570726        0.22633043908977
H            4.30989425704428       -2.37337005715579        0.01715460096793
H           -0.33419105095160       -1.52549644406157       -1.65603313209173
H           -1.16321894576598       -1.10462794499595       -0.15492901038274
H            0.39257815020224       -1.94928628006649       -0.09184840388684
H           -4.85874437432681        2.62483494316451        0.45144023893785
H           -3.45538335251852        3.93817187649622        2.79561090678578
H           -4.78525609686728        2.77762211758680        2.91398205081375
H           -5.05274618934976        4.34888736460925        2.16212317851861
H           -2.49483771082723        4.53471842530063        0.51215151605456
H           -3.07382517170143        3.67984442121104       -0.92079938295091
H           -4.09381314223528        4.90558550589179       -0.16365274897596
H           -0.39901267374950        3.28095381546110        2.50019189790889
