72
 energy: 54.647375853249 xtb: 6.6.1 (8d0f1dd)
N           -1.40832981253058        3.19397331208888        2.11498820044871
C           -1.65726637571429        2.13157216393091        1.45450609874564
C           -2.86203865092843        1.94464447554354        0.70246463108456
C           -3.35816043028673        0.58248395273847        0.61150482242817
C           -4.33025225113777        0.23307544014341       -0.34521093078560
C           -4.80916056299226       -1.05229075235583       -0.45752956559884
O           -5.72979440019833       -1.46085885831768       -1.37686358816374
C           -6.32760963582969       -0.50092609293647       -2.20536946440621
C           -4.32793332162997       -2.06147272713099        0.40035345618745
O           -4.86804331308467       -3.30224722663150        0.20365647520216
C           -4.50719189959406       -4.32239448163165        1.09010178811923
C           -3.40365650658411       -1.72019769812842        1.37174805838623
C           -2.92652829595295       -0.42355321200771        1.47650694167994
C           -2.01458061651079        2.41980940855609       -1.69238131855953
C           -1.33512315165716        1.10356682804510       -1.70852244154561
C           -0.00154322537964        1.12076895944236       -1.09273056529322
N            0.56312392442004        0.01606927054784       -0.57294772376755
C            1.94044626932943        0.01560481577529       -0.15486414081710
C            2.87820933726629       -0.51251013616219       -1.25997066904803
C            4.31075582658500       -0.41281738734144       -0.81575978562677
C            5.03313436029881        0.74834329635567       -1.01585223249970
C            6.34641391878561        0.85426300088410       -0.57622667799219
C            6.95415042185378       -0.20565443569591        0.07488700435719
O            8.23498924360948       -0.21795926791248        0.53723067008473
C            9.03256321045359        0.91941682691795        0.33192673005360
C            6.22330684287828       -1.39688442676104        0.29450680275949
O            6.90421890950152       -2.38243409841836        0.94092806046872
C            6.26256144409596       -3.61001995979188        1.16124144758843
C            4.91558237760384       -1.48008647692198       -0.15056622747142
C           -0.12960696651665       -1.25071149040040       -0.63063987657978
C           -3.92155745218577        3.02189906423121        0.74890139657443
C           -4.41321103028546        3.20908320231331        2.17333457228006
C           -3.37429801783613        4.33564910745666        0.20808974020516
H           -4.68600231209469        0.99748846127337       -1.01645013458570
H           -6.83817259208688        0.27566361361520       -1.62765487899282
H           -7.06099726411125       -1.03963896780664       -2.80319107404497
H           -5.59802999588325       -0.03287705221558       -2.87445289259763
H           -4.77192770770233       -4.07971676472476        2.12294014238056
H           -5.07250529098055       -5.19618511177052        0.77011824182054
H           -3.43559367607907       -4.54631772683257        1.04095187508676
H           -3.03395547151009       -2.46206668130246        2.05789997272592
H           -2.22400495793661       -0.19884337063764        2.26273010174670
H           -2.77286931680193        2.51676766722696       -2.45893915870669
H           -1.33792720523654        3.25511774124536       -1.66368678524426
H           -1.98810072865784        0.39002735653498       -1.20105580217256
H           -1.26720820065632        0.84604519632284       -2.77719792806424
H           -0.91824051946545        1.32123680570792        1.39021397923174
H            0.62528805487111        2.00860626007837       -1.13704788700372
H            2.05041076229615       -0.59549707934239        0.74482401647104
H            2.22625976920389        1.03469410713485        0.09469294041658
H            2.72190491354715        0.08271663576897       -2.16055905980364
H            2.62429984141792       -1.54960105639761       -1.48398352531668
H            4.57831018820749        1.58000226812307       -1.53105160744660
H            6.88838081259582        1.76933761190737       -0.75710588426639
H            8.61906911909139        1.80208750713626        0.83164841602641
H            9.16485848041200        1.13787555020678       -0.73385896393324
H            9.99874676575875        0.68136290539214        0.77238992630643
H            6.99899080165385       -4.23943818092144        1.66010974614498
H            5.38636794765438       -3.49809154207616        1.80806881106895
H            5.96205654292434       -4.08501666470601        0.22095243989347
H            4.34626026158323       -2.38221122309053        0.00421006042559
H           -0.29284915657269       -1.57585799737879       -1.66278339506948
H           -1.10238388433392       -1.16505610061005       -0.14516466677777
H            0.44226247543138       -2.01845479743044       -0.11042299567473
H           -4.79647488379051        2.73004655773552        0.15423483102593
H           -3.58538853081212        3.51148756905727        2.79782577952150
H           -4.85593556912734        2.30190514034277        2.57380684605876
H           -5.17370720501365        3.98102887058712        2.16458916315613
H           -2.53002735281547        4.61186045784275        0.83076120945870
H           -3.02778855262150        4.19232776048023       -0.80370081571843
H           -4.13794068621398        5.10421839712089        0.21720491692951
H           -0.54173806902599        3.15432916495420        2.63989269295877
