72
 energy: 15.531537748201 xtb: 6.6.1 (8d0f1dd)
N           -1.47978654188492        3.03189836488183        2.20447317135041
C           -1.59020312624915        2.16022752683796        1.29073078422618
C           -2.76976096895728        2.02831359909908        0.36600494027859
C           -3.32148118994458        0.61852734513667        0.45931515911973
C           -4.31463723453563        0.24197021037525       -0.45327800434831
C           -4.82916010583667       -1.03710126569050       -0.48908322703285
O           -5.76756021421665       -1.47795216836324       -1.37545458927433
C           -6.35849461550529       -0.55039236088845       -2.24745157369936
C           -4.36187244350379       -2.00624681069772        0.42264419041810
O           -4.92514585176257       -3.24118815823770        0.29859732964837
C           -4.57800226573923       -4.22461662004256        1.23588072694800
C           -3.41929045596984       -1.63002721140950        1.35987146438703
C           -2.91232417979441       -0.33163813178857        1.38429279461083
C           -2.13746804474356        2.33659590005907       -1.34085648594438
C           -1.30223415040379        1.13002155815132       -1.70100545482977
C           -0.00485827452719        1.16268039074786       -0.99635729284067
N            0.59053721680795       -0.01302403118857       -0.55240495438777
C            1.96156846781897       -0.00938772639715       -0.15741738737829
C            2.90296137222901       -0.52668846026831       -1.26981709810743
C            4.32975566100859       -0.42400941800570       -0.83122486701655
C            5.05166866090818        0.73895444036426       -1.02871638280111
C            6.36354325851355        0.84766680634286       -0.58830707937140
C            6.97230345952220       -0.20688932033059        0.06852505500188
O            8.25486686748272       -0.21609483272172        0.53777744381744
C            9.04882952601259        0.92292649777735        0.32663768336373
C            6.24125160825537       -1.39481471283070        0.28880340583302
O            6.92472150504980       -2.38241021150903        0.93958166498381
C            6.28685503277074       -3.61224514732208        1.15763321455857
C            4.93670863584587       -1.48482051262676       -0.15906104742503
C           -0.09580298371964       -1.27292373419637       -0.62717395983347
C           -3.89572708894312        3.03870586370716        0.65167636180076
C           -4.44674856139371        2.99840472666854        2.07015545412814
C           -3.37948214529627        4.43633145842979        0.35776945370617
H           -4.67391714291221        0.97372415905527       -1.15702820298057
H           -6.84353150169497        0.26897900983711       -1.70719530637617
H           -7.11231557785482       -1.10692526414086       -2.80143507686721
H           -5.62804253384679       -0.13879990213477       -2.95188016883128
H           -4.82271567865926       -3.91546533459523        2.25569596734747
H           -5.17250874852087       -5.09737694441336        0.97095189343008
H           -3.51384113344777       -4.47855895127128        1.18350246282554
H           -3.05226292323174       -2.34475267882505        2.07866530700294
H           -2.18710630540292       -0.09136358297619        2.14615842008889
H           -2.89477595436480        2.46319779674782       -2.13053283772956
H           -1.49781387018805        3.22262684682485       -1.40971418153309
H           -1.90162683111248        0.28295438949837       -1.39466658038755
H           -1.16952553581503        1.11453306954643       -2.79746597715513
H           -0.79302995581302        1.45194366267442        1.03335082531692
H            0.64211606101877        2.02012983207960       -1.05227716137557
H            2.09280886369476       -0.61944766739641        0.74632497865599
H            2.25901383329059        1.00811867255643        0.09663560456698
H            2.74064719300811        0.07554880922780       -2.16379087650063
H            2.64729936548174       -1.56283864365240       -1.49766193147093
H            4.59827325009509        1.57158438767829       -1.54504601784105
H            6.90446852353544        1.76300912101322       -0.77175907583418
H            8.63303943544592        1.80593526046768        0.82394734442163
H            9.18049077351496        1.13854115520891       -0.74001177024086
H           10.01577607216123        0.68783852931901        0.76698971765607
H            7.02485434759270       -4.23875923497522        1.65760067454360
H            5.40947289376718       -3.50290631652730        1.80353333326916
H            5.98887809490109       -4.08841073250582        0.21698024949750
H            4.37141278658253       -2.38953188876960        0.00016441201303
H           -0.26613980630070       -1.60266115294984       -1.66061262199562
H           -1.06409507658066       -1.19958754858262       -0.12884417780751
H            0.49111496392169       -2.03549709280748       -0.11221322274042
H           -4.74179229039696        2.83000319142385       -0.01545477913370
H           -3.65701108870956        3.22940688021176        2.77402669606067
H           -4.86807939294658        2.02943558276750        2.31281253061902
H           -5.24168703025944        3.73763661285423        2.15341378327273
H           -2.55942579684970        4.64680186364993        1.03663134943620
H           -3.02051138801994        4.50153550607556       -0.65946834289450
H           -4.18152096543257        5.15276541826314        0.48811100590953
H           -0.56146111455817        2.98292858698742        2.64300486036994
