72
 energy: 55.042059909540 xtb: 6.6.1 (8d0f1dd)
N           -1.31299660433828        3.26885206993790        2.03260788333691
C           -1.77715703159457        2.07866843320581        1.84701103666267
C           -3.02245050232757        1.83341490176941        1.23581192506045
C           -3.43493807044432        0.49389521057369        0.93428229204895
C           -4.35266117466874        0.20799963100503       -0.10652372647584
C           -4.75812013757652       -1.07617770610304       -0.38947057059781
O           -5.62856538082919       -1.41798996740927       -1.38754232371336
C           -6.26374182240283       -0.39560066044658       -2.11041984640139
C           -4.26572288092328       -2.16454356163338        0.36718072527043
O           -4.73362077756204       -3.40117099034231        0.00733224426499
C           -4.34683270368244       -4.51503194478540        0.76532144171482
C           -3.37222283999017       -1.90039687994189        1.39130429150198
C           -2.96075758759160       -0.60911208118758        1.66160852414676
C           -1.78187834677735        2.50179872919567       -2.31257098178094
C           -1.32760087201541        1.19006688408435       -1.82499142982466
C            0.00188114624461        1.14033922904159       -1.22003125415523
N            0.50883780251930        0.06642628989316       -0.60109771800005
C            1.87875418204410        0.06787381893320       -0.16013076575639
C            2.83134288662052       -0.48814768646691       -1.23982396071293
C            4.26082626071931       -0.39344826087665       -0.78812879212809
C            4.98914014521977        0.76256924382599       -0.99396002427453
C            6.30656764309373        0.85977972539041       -0.56683572422801
C            6.91548758041391       -0.20051882508187        0.07991751689553
O            8.19632792966424       -0.22106593622250        0.53645799035602
C            9.00262300173926        0.91276423074679        0.33725426305276
C            6.17799574568469       -1.38710469749724        0.29913134890570
O            6.86027579722207       -2.37808711312307        0.93545376744494
C            6.21887807279221       -3.60576633420263        1.16592331352977
C            4.86652368039792       -1.46479010653435       -0.13252610299508
C           -0.19504718441207       -1.18483337692497       -0.63918736688382
C           -3.95811473754079        2.98706387472684        0.99009402956640
C           -4.31421922191060        3.66679052869191        2.31504613057687
C           -3.35118540448662        4.00273323918439        0.02534082631375
H           -4.72257554914363        1.01962213455715       -0.71178952784220
H           -6.83301412587274        0.27073035321185       -1.45451685113196
H           -6.94800260215874       -0.89809970769658       -2.79166993052276
H           -5.54830501841324        0.19353760372961       -2.69384436690796
H           -4.65886716708278       -4.42960254592989        1.81094190722841
H           -4.85413282074687       -5.36430735649556        0.30788652063828
H           -3.26435791127281       -4.68528214872662        0.72666560389667
H           -3.00446118803680       -2.69958749048027        2.01621304972329
H           -2.30323535046128       -0.44418499014217        2.49859606306519
H           -2.50056972611439        2.54243463097994       -3.10797925940638
H           -1.13249420206621        3.35049297336288       -2.20002277750293
H           -2.06165809006114        0.80872903799676       -1.09005123733915
H           -1.37312578412550        0.44233208162474       -2.63544692849569
H           -1.16193648120906        1.18740782448790        2.06376037956858
H            0.57801599363193        2.05124341368695       -1.14476309803434
H            1.96425143577576       -0.53735438964327        0.74567677855501
H            2.17632954597132        1.08988515486269        0.08181879001007
H            2.69350552609717        0.09267945529621       -2.15410062352600
H            2.57163342864773       -1.52717633993938       -1.45002308596791
H            4.53919392385379        1.60129022797794       -1.50368162831668
H            6.84982672400144        1.77264057898736       -0.75132685022206
H            8.59547237596738        1.79469776129554        0.84277448209532
H            9.13610997315543        1.13401695977278       -0.72712538608244
H            9.96779183227609        0.66253517087302        0.77507110352146
H            6.95908535350083       -4.23180885164780        1.66218634137551
H            5.34732179869545       -3.49248104242628        1.81960444970877
H            5.91252128809580       -4.08532149288584        0.22994261594804
H            4.29802780827355       -2.36877571919169        0.02368793719728
H           -0.34556633734711       -1.52712047809978       -1.66899695197069
H           -1.17713169023563       -1.08334536733289       -0.16549597050860
H            0.37680102787400       -1.93491139281686       -0.09952605088718
H           -4.88984359094684        2.60656874395683        0.56323878693305
H           -3.42411706654777        4.07832794891367        2.77793778423014
H           -4.78066554981806        2.96728147498956        3.00537832878540
H           -5.01364473154263        4.48183505341977        2.13587950637110
H           -2.47787548102407        4.45241596956390        0.48541117149125
H           -3.03676646734098        3.49874742428821       -0.89789455617419
H           -4.07489820895519        4.77584691226132       -0.21280818053560
H           -0.38688744054771        3.29243835069156        2.45293272017847
