72
 energy: 56.965038042641 xtb: 6.6.1 (8d0f1dd)
N           -1.38444071060922        3.20618764833581        2.09226445006381
C           -1.66770486715665        2.11863241197662        1.48883631073960
C           -2.87766207483612        1.93011987848574        0.76375418876586
C           -3.36307271270725        0.57338616181621        0.64032429907840
C           -4.33245451346203        0.23062437725999       -0.32492785585846
C           -4.80636153503943       -1.05561454562002       -0.45644053791039
O           -5.72358217908829       -1.45784243878735       -1.37933712919662
C           -6.32249309926959       -0.49078487328965       -2.19806505551737
C           -4.32425386390737       -2.07241822960722        0.39439051556123
O           -4.85694276364744       -3.31496608274648        0.18343304652322
C           -4.49308417795500       -4.34155309147741        1.06084223812805
C           -3.39941559251751       -1.73868496405796        1.36900954016798
C           -2.92556992532439       -0.44388882752815        1.49073374400407
C           -1.99032014637543        2.43506612530758       -1.76163434964349
C           -1.33997222305810        1.10981975299737       -1.71545847087743
C           -0.00235605399467        1.11498840700822       -1.11862796952804
N            0.55547289868487        0.02036063843859       -0.57614697551577
C            1.93354476805132        0.02167624328549       -0.15625641573981
C            2.87323526413960       -0.50944206379391       -1.25814241271912
C            4.30600538442969       -0.41047780715428       -0.81255025153545
C            5.02969911050518        0.74980452122601       -1.01313169525897
C            6.34368067725238        0.85453162553319       -0.57449525788643
C            6.95390128022637       -0.20552491400571        0.07521413766494
O            8.23299729249810       -0.21830643961631        0.53719104589212
C            9.03035625392731        0.91917975797397        0.33298435864645
C            6.22079429755400       -1.39625085759689        0.29412937500485
O            6.90068489347890       -2.38207390999645        0.93969442272095
C            6.25811908813879       -3.60978797810735        1.16131359144955
C            4.91179247452112       -1.47819233042462       -0.14908095849786
C           -0.13708847498877       -1.24496642017539       -0.63132251883087
C           -3.92190323080218        3.01939752437639        0.77169476926440
C           -4.40436568958935        3.25067199114786        2.19291093768467
C           -3.37410706715418        4.31337232957487        0.18562709953862
H           -4.68895952898234        1.00216862867383       -0.98831907558555
H           -6.83757463171992        0.27685146286686       -1.61229808674555
H           -7.05175754086781       -1.02564521977096       -2.80427355974417
H           -5.59290431516329       -0.01170047447590       -2.85947980442399
H           -4.76141797370181       -4.11217501935755        2.09605228985701
H           -5.05236521812861       -5.21557352970162        0.73035299249855
H           -3.42005894984428       -4.55923039444484        1.01252877522194
H           -3.03166267691142       -2.48484819633891        2.05180184805910
H           -2.23157536290695       -0.22164301549539        2.28469644693844
H           -2.74859741872487        2.52399389225292       -2.52427866272601
H           -1.31291569487600        3.26580456156309       -1.71524130603250
H           -2.00560142669490        0.42601186266973       -1.17498429071620
H           -1.28013850208132        0.79464463122535       -2.76791402761169
H           -0.94589407429452        1.28753199271952        1.45767698084403
H            0.60925716957075        2.00991519204971       -1.14045117242857
H            2.04160340312751       -0.58925382057752        0.74400738869405
H            2.22304527879445        1.04049833554923        0.09161493791153
H            2.72090446989535        0.08464137149707       -2.16093777674368
H            2.61902343020095       -1.54687873505999       -1.48136183302397
H            4.57645327706575        1.58273301061294       -1.52831148094532
H            6.88486137878505        1.77034623180962       -0.75489261215755
H            8.61664579862419        1.80134605746151        0.83337765317348
H            9.16189732752004        1.13805290001828       -0.73269099549066
H            9.99621491173964        0.68001394792677        0.77306030310108
H            6.99412753647922       -4.23968933866418        1.66014126175098
H            5.38212952291579       -3.49727471784070        1.80850824856439
H            5.95673758936929       -4.08456121175068        0.22131634264115
H            4.34249277108331       -2.38085399888680        0.00555173184557
H           -0.29950536354168       -1.56969683325620       -1.66371593942056
H           -1.11060402265726       -1.15860097421022       -0.14626471743318
H            0.43479044094531       -2.01162567137223       -0.11042658658005
H           -4.79976387986232        2.71410230736734        0.19051577823740
H           -3.56964054416892        3.56588851724013        2.80205272098284
H           -4.84995183959871        2.35789236740804        2.62289261049838
H           -5.15905228009063        4.02787152975220        2.16702645000204
H           -2.52275008674927        4.61354169278599        0.78968054393422
H           -3.03441482093717        4.12764846777734       -0.82127763067886
H           -4.12892480492729        5.09376853242410        0.16448608089361
H           -0.53752521182623        3.17967337336599        2.64558231781831
