72
 energy: -4.439835641993 xtb: 6.6.1 (8d0f1dd)
N           -1.49046357750913        2.85888679877481        2.23198819577630
C           -1.56614641825865        2.14707057746141        1.19507991093968
C           -2.75000458034421        2.05435690843690        0.27156429764133
C           -3.31905563020209        0.64184773294998        0.36808930825914
C           -4.30770637675750        0.24585632239994       -0.53625787079665
C           -4.84188503619591       -1.02695622515529       -0.51714731368027
O           -5.80154639877440       -1.48689174249406       -1.36817355992275
C           -6.38291286913474       -0.59031963971173       -2.27941553561966
C           -4.38548302998932       -1.96342164280701        0.43581724126717
O           -4.96962296043884       -3.19229501550356        0.37288278181564
C           -4.63537348362226       -4.14160274034510        1.35106313900169
C           -3.42063060447871       -1.57078053721088        1.34277694746811
C           -2.89667396186366       -0.28092097281163        1.31116538431040
C           -2.18135107741957        2.31275104307251       -1.22155920794408
C           -1.27476129660320        1.16993076265808       -1.67873994181040
C           -0.00077569538745        1.14191446471338       -0.91634429350650
N            0.62230093288327       -0.03938032080895       -0.55569571300773
C            1.99034501725805       -0.02803891430808       -0.15756025594920
C            2.92629725798506       -0.53549369264298       -1.27551936801204
C            4.35135585212158       -0.43084593838009       -0.83906332672587
C            5.06839876771583        0.73403725660893       -1.03871251237537
C            6.37929455515765        0.84416601427037       -0.59781632539737
C            6.98902990100194       -0.20819324094221        0.06160919515573
O            8.26954705138697       -0.21362587683433        0.53148275977478
C            9.06243893999070        0.92602310536587        0.32211900796231
C            6.26039327506497       -1.39865489440544        0.28328835863779
O            6.94294768710153       -2.38282259871294        0.93487940602313
C            6.30536583586508       -3.61359000612396        1.15511521218102
C            4.95609405469503       -1.49042260893450       -0.16265572454895
C           -0.06635926530823       -1.29515191544501       -0.62229349884178
C           -3.87905714315837        3.06076240524400        0.60125837401413
C           -4.48014889004126        2.84867791535233        1.98611659599833
C           -3.38769391422300        4.49702199849429        0.48669686094087
H           -4.66451029510170        0.95508980412174       -1.26394842052917
H           -6.84706185885056        0.26201147415352       -1.77237267008789
H           -7.15265185916664       -1.16011262320491       -2.79715514541415
H           -5.65374113051854       -0.22589703957054       -3.01098064469321
H           -4.86338220135148       -3.78103951474459        2.35887271433621
H           -5.25255929291137       -5.01110173052912        1.13124196731173
H           -3.57846730768623       -4.42464888289259        1.29861870172992
H           -3.06294865884977       -2.25998703715538        2.09148920423511
H           -2.15850235935774       -0.01455688611169        2.05247408088538
H           -2.98135988737880        2.40643666480248       -1.96223633227461
H           -1.60338203306048        3.23739413731563       -1.26842087384135
H           -1.83866381255280        0.24971107674072       -1.54972214068301
H           -1.06331464216516        1.30072987775963       -2.75069644564322
H           -0.71780788756240        1.57943177074719        0.76349450657252
H            0.64568343408812        1.99997388170922       -0.97385368618662
H            2.11295224501252       -0.65013367216499        0.73684191455676
H            2.28747847818347        0.99034389017261        0.10445755014929
H            2.75767287877074        0.07073275394917       -2.16712888171978
H            2.66961382797660       -1.57044393120892       -1.50774081867182
H            4.61407080401108        1.56572671751378       -1.55629889657426
H            6.91783473035762        1.75982899109802       -0.78341342801562
H            8.64520360437171        1.80869418650016        0.81889869129928
H            9.19433412094225        1.13928241277943       -0.74452318255969
H           10.02900971603081        0.68976658939751        0.76355078938258
H            7.04403598937428       -4.23746002870254        1.65650856355512
H            5.42734030044271       -3.50543056063372        1.80098551688060
H            6.00891746842289       -4.09150444475050        0.21494625919512
H            4.39096695914643       -2.39607427715481       -0.00405351151191
H           -0.23694208894259       -1.61603333423478       -1.65678537416718
H           -1.03266427656118       -1.22758515616692       -0.11597216781083
H            0.53631530429170       -2.04961483262961       -0.11917163076521
H           -4.68132127194213        2.91371792016647       -0.13052567132961
H           -3.72313680869615        3.01261852336656        2.74470437789326
H           -4.87400253404772        1.84372827891923        2.09106017722246
H           -5.29708506757892        3.55159805645905        2.13675365338623
H           -2.58516262458909        4.66968734768246        1.19723305646596
H           -3.03053651132638        4.71267580951846       -0.51359879744431
H           -4.21025575771426        5.17145973241338        0.70312473191630
H           -0.59056743232291        2.84269657077743        2.71239188605420
