25
 energy: 8.351611834281 xtb: 6.6.1 (8d0f1dd)
C            3.17603285504216        1.41082889676333        0.09732172870276
N            2.43357863317912        0.05602662040295        0.08450378958581
C            2.66570408972065       -1.34477708120795        0.04895840253584
N            1.44824013924631       -2.03929646794769        0.00587257342615
C            0.43901272643266       -1.14571344393695       -0.00520202659957
C            1.01138011334316        0.12496061917686        0.02895580369017
C            0.17803166280697        1.27318632649124        0.00014252359470
O            0.54345217817147        2.44930521540448        0.00998818137192
N           -1.21906959541909        0.97590881504094       -0.03361218526612
C           -2.12720908654211        2.11526735811137       -0.05135989613153
C           -1.79486553288706       -0.25117103272653       -0.05419059010803
O           -2.99982488562090       -0.41437268706162       -0.08297464576590
N           -0.92554908490312       -1.36101884672127       -0.04163391707960
C           -1.56334731972056       -2.65949863153732       -0.06252720730068
H            3.72187199581023        1.61223627534049        1.03088935820715
H            3.93061710283457        1.51581536344740       -0.70138182737283
H            2.42248896420753        2.18990188158423       -0.01131797675298
H            3.59680768848760       -1.85114615311743        0.03765172106357
H           -1.53530524428256        3.02514448242899       -0.02680061708254
H           -2.72919275781187        2.10268793297569       -0.95809543177040
H           -2.77930523758109        2.09137405130539        0.81938331936850
H           -1.32291207216547       -3.23787738870799        0.83082291494069
H           -1.29674998318952       -3.22203750062548       -0.95858179710305
H           -2.64012225735488       -2.47829282881977       -0.07725196080027
H            1.28953777509245       -3.03821114074816       -0.02119451302458
