25
 energy: 41.948546147612 xtb: 6.6.1 (8d0f1dd)
C            3.50123220322374        2.44928296547861        0.10348230742883
N            2.36066371139133       -0.50910399725528        0.20392570294812
C            2.47022055912835       -1.76574930984180        0.04935303878730
N            1.26716467942975       -2.41755708427956       -0.04184742106673
C            0.32474441508336       -1.42055536257378       -0.01239748015661
C            1.03051799036270       -0.22996908442601        0.09001983198392
C            0.28576065204448        1.02712950902442        0.05639410597964
O            0.68811248865621        2.15903143489157        0.07412058080002
N           -1.08829954787228        0.84045215144825       -0.03933103220673
C           -1.90725764232521        2.06294954688865       -0.06301776005389
C           -1.78307503491931       -0.34120671532528       -0.07032089034124
O           -2.99301134347265       -0.34144350654282       -0.11208149928233
N           -1.03346711296396       -1.52212503622658       -0.05502092483899
C           -1.82044581619107       -2.73541503264812       -0.06576032164323
H            4.01283738127660        2.62734654089581        0.98674553864322
H            3.86005352745539        2.67110491589960       -0.84699287176467
H            2.47920226201341        2.62716446680188        0.19895843881866
H            3.40305799281665       -2.26757118335963        0.02773571627233
H           -1.24438197011679        2.91341959449456       -0.04190921396488
H           -2.50049183169284        2.10876645691000       -0.97260029847465
H           -2.54919229659436        2.12241475731434        0.81349827472646
H           -1.67601805095688       -3.33890479092811        0.83074097236347
H           -1.64561918221299       -3.33936099792786       -0.95571138496633
H           -2.85864756333352       -2.38091458030890       -0.08323118955297
H            1.15373388761002       -3.41211406912392       -0.05250538805066
