25
 energy: 42.090652252005 xtb: 6.6.1 (8d0f1dd)
C            3.45499623338155        2.35804060419722        0.10335901373565
N            2.37011828575088       -0.46780249197615        0.15060920392849
C            2.48831594530627       -1.72707292248713        0.03975019368624
N            1.28723372443730       -2.38628454734230       -0.02889627252291
C            0.33931984135804       -1.40047369716313       -0.01226064379238
C            1.03050283775991       -0.20264755086101        0.06852830054141
C            0.27453312034530        1.04421216677921        0.04735902614293
O            0.68795310457450        2.17240775872077        0.08801640611343
N           -1.09912442528846        0.85340956789470       -0.03802865205987
C           -1.92955100232848        2.06686555231503       -0.06006798698427
C           -1.77782110815086       -0.33567951985089       -0.07048802664017
O           -2.98660220190341       -0.34333073208213       -0.11549107161547
N           -1.01732555654625       -1.51270380055322       -0.05292243045842
C           -1.79304232351782       -2.72963073601217       -0.06540670303201
H            3.97360031784646        2.52173410569403        0.98544957078901
H            3.82319615168542        2.55042170926358       -0.84880193026561
H            2.43913846593117        2.58094837835806        0.20525524661111
H            3.41485392614927       -2.24247771076280       -0.00108942746082
H           -1.27497819306127        2.92336831024726       -0.03887873685417
H           -2.52473057566938        2.10673459539696       -0.96886387970593
H           -2.57307270808511        2.11658197420348        0.81575624900737
H           -1.63813244606452       -3.33027781061225        0.83065182907347
H           -1.60840373856804       -3.32738702902107       -0.95726839264268
H           -2.83295978791379       -2.38385258230539       -0.08222542358418
H            1.17435657085719       -3.37876611363702       -0.04378251655917
