25
 energy: 31.952651943793 xtb: 6.6.1 (8d0f1dd)
C            3.73930787298662        3.22165990969338        0.05836916467596
N            2.29022334707836       -0.71178148229634        0.18771085278670
C            2.33052582970733       -1.99181478397204        0.04127745242321
N            1.07802022808490       -2.55793508959766       -0.11129047032819
C            0.20658342870179       -1.53048926141129       -0.03802002356850
C            0.96250616060992       -0.38233092253497        0.11357035807622
C            0.32728881786917        0.89934499554044        0.06884533985563
O            0.86204364609485        1.97934191332573        0.07749282257740
N           -1.06791996712307        0.80354095536947       -0.02179655910133
C           -1.81842912251835        2.05115232897995       -0.07714016660134
C           -1.83284506947867       -0.32984101928623       -0.06480499985421
O           -3.04165194533914       -0.29035768354942       -0.09874202610551
N           -1.15215087065848       -1.55068230209095       -0.07273829865818
C           -1.93612836768668       -2.76929585674841       -0.07076961889813
H            4.25378900042135        3.30253594116405        0.99100574760902
H            4.22853462588825        3.38815478981420       -0.87377157309415
H            2.81118445153769        2.72111494174563        0.08028628259114
H            3.20676011730899       -2.59977035523143        0.04234120568429
H           -1.11300066755763        2.87847233802524       -0.08130788774319
H           -2.42414973381316        2.08027856355005       -0.98432878403498
H           -2.46788879021718        2.12969385151612        0.79158671883670
H           -1.75939443193396       -3.35843954961954        0.83255808639121
H           -1.73740370423705       -3.37825721112489       -0.95263316469418
H           -2.98691099033010       -2.47004607801396       -0.09113910629034
H            0.88837723083964       -3.54377690223515       -0.07317738613371
