25
 energy: 30.993232364048 xtb: 6.6.1 (8d0f1dd)
C            3.79296706031646        3.21674770988461        0.09593892554012
N            2.27866443555693       -0.71260143646140        0.12988956395930
C            2.31437119469049       -1.99495654615127        0.04577202702461
N            1.06498825728799       -2.57371387037620       -0.08255640841791
C            0.19386416627316       -1.53776853807155       -0.03172904442868
C            0.95048998708424       -0.38267795913352        0.07471102980950
C            0.32282820873284        0.90947852173715        0.05281345137045
O            0.86365284928882        1.98673573909873        0.07031581985130
N           -1.07275936240498        0.81031946145363       -0.02661656580510
C           -1.82249030707710        2.05066422670971       -0.06784586763347
C           -1.84144044058616       -0.32854701372399       -0.06448294700301
O           -3.05061764934613       -0.29084336785711       -0.09557601716696
N           -1.16418039275605       -1.55444283371897       -0.06853903787674
C           -1.93902046834375       -2.78181496816425       -0.07708782507843
H            4.25336089297592        3.39460929347978        1.02587004925406
H            4.32106059177670        3.37964785467060       -0.81202422471264
H            2.80730129222277        2.82894130540864        0.09194757769991
H            3.17349516021207       -2.62582912036788        0.04408681593734
H           -1.11861748630738        2.87660281419031       -0.06004732711711
H           -2.43379689932965        2.09090510052258       -0.96898729944201
H           -2.48394813735519        2.11668099217202        0.79274250146507
H           -1.75587006828604       -3.37653522585272        0.82116432071766
H           -1.72952278736474       -3.38092338349801       -0.96483510581956
H           -2.98879150290156       -2.49108347363781       -0.09235308160398
H            0.87442505066301       -3.56373237003214       -0.07356453262913
