25
 energy: 41.653485946880 xtb: 6.6.1 (8d0f1dd)
C            3.27421568288141        1.90539073721306        0.10271222341210
N            2.41807003358539       -0.22308507383559        0.09916128675241
C            2.59889715758655       -1.49789726177280        0.06696966029468
N            1.41034362519460       -2.19512100244476       -0.00529317321183
C            0.41555097003815       -1.25666943457501       -0.01042064070791
C            1.05113949741226       -0.02050725908960        0.03921149068303
C            0.23326767433714        1.18754682727720        0.01736169091264
O            0.57762962118731        2.34457448033361        0.06147101103815
N           -1.15755200962817        0.92428063554555       -0.03348124534086
C           -2.04944232926543        2.08743951973934       -0.05416207272150
C           -1.77141027709818       -0.29083858635035       -0.05918297178356
O           -2.97862738546672       -0.39553643907139       -0.09442005283950
N           -0.94429537837992       -1.42378465578284       -0.04608671791776
C           -1.64961860475544       -2.68292736598082       -0.06403801143507
H            3.76410411449139        1.97668975925486        1.03367227973678
H            3.88936128387127        1.91657284381945       -0.75552723163043
H            2.30671463233148        2.34339622824551        0.07358594933748
H            3.54784484708962       -2.00627050703857        0.04018372278673
H           -1.44414562942902        2.98673746821509       -0.03116570708250
H           -2.64997900285328        2.09022897748483       -0.96131612620115
H           -2.70086023947195        2.08898756504265        0.81705518320854
H           -1.44533116757456       -3.26989713665838        0.83098094164854
H           -1.41745870596218       -3.25878966202888       -0.95920965124821
H           -2.70978718726171       -2.42634815872119       -0.07921868797332
H            1.30186153434273       -3.19122836328325       -0.03126857275840
