25
 energy: 41.094471987790 xtb: 6.6.1 (8d0f1dd)
C            3.26577090315962        1.80157097748390        0.09496213713877
N            2.41787130576813       -0.17009464870627        0.11958273652514
C            2.61712609068254       -1.45528785191710        0.06513024835823
N            1.42594460745785       -2.15251279224952       -0.00936330023709
C            0.42327963702939       -1.22502131892282       -0.01067084597022
C            1.04461778683066        0.01765485915886        0.04089970807254
C            0.21702039454551        1.21447071815239        0.01267757876456
O            0.56649389311303        2.37538880401036        0.03395952831827
N           -1.17621752894518        0.93920581866145       -0.03293381048654
C           -2.07353101952404        2.09556477694142       -0.05358708692412
C           -1.77771217252005       -0.27982150937831       -0.05753424222883
O           -2.98352943249182       -0.40685591723758       -0.09174481721417
N           -0.93706514785031       -1.40526111083428       -0.04584054012863
C           -1.62126682895481       -2.67576693204867       -0.06368569881760
H            3.76353256386675        1.86441125443087        1.03274249865919
H            3.92049237356206        1.79833542380928       -0.74400086308990
H            2.34132885358046        2.31765154274707        0.03848347997001
H            3.56475989655378       -1.95677613679671        0.04161945233688
H           -1.47309945963636        2.99936623318475       -0.03001327734680
H           -2.67492558130960        2.09294228753004       -0.96049221333264
H           -2.72511453155588        2.08806561348941        0.81755277499819
H           -1.40451973038651       -3.25896109001995        0.83143460536212
H           -1.37771450888114       -3.24715534560688       -0.95905222943896
H           -2.68671291354720       -2.44289156845385       -0.07802396747285
H            1.29903433367147       -3.14730385974399       -0.03165463903271
