25
 energy: 1.425769198464 xtb: 6.6.1 (8d0f1dd)
C            3.19114107547015        1.35366089668102        0.09423386484767
N            2.41291708215662        0.07915973482111        0.06655782139563
C            2.65030067874306       -1.31308960768282        0.04434321085849
N            1.43687855301507       -2.00849914855787        0.00463041504054
C            0.42828469121352       -1.11854724797881       -0.00563740933309
C            0.99244959406606        0.15419249432533        0.02588290676341
C            0.16280217979363        1.30360988364760       -0.00099786971401
O            0.53413030505853        2.47854076093000        0.00434156135153
N           -1.23282419116781        0.99506287639054       -0.03211575469612
C           -2.15212319888284        2.12339587322308       -0.05016766795859
C           -1.80393829397166       -0.23674755147978       -0.05168929344658
O           -3.00812500474719       -0.40519303320219       -0.07862157162843
N           -0.93067795047220       -1.34232132197317       -0.04022214643247
C           -1.54051912384349       -2.65385822062198       -0.06245280625579
H            3.71962014898655        1.51710579581238        1.04302410935409
H            3.95563698341830        1.39727003816004       -0.69556329967879
H            2.48814960093907        2.17357789213149       -0.03742706822844
H            3.59290038893046       -1.79999158666316        0.04263735944683
H           -1.56912227896190        3.03900107243327       -0.02596511919006
H           -2.75471632629463        2.10262101557966       -0.95663589542542
H           -2.80513275010401        2.08982546024336        0.81995921430926
H           -1.28531153325051       -3.22746568367433        0.83050502824076
H           -1.25787664996277       -3.20996502617581       -0.95824740909374
H           -2.62050544146313       -2.49632830906984       -0.07793424316157
H            1.29953185339564       -3.00755310256829       -0.02003019343961
