25
 energy: 35.750234380665 xtb: 6.6.1 (8d0f1dd)
C            3.73942512575107        3.04584073618832        0.04890036096651
N            2.31035111907654       -0.71809921997747        0.30711194510899
C            2.36401146140765       -1.97801152446813        0.04635930743705
N            1.11913919552397       -2.54033624311803       -0.14352219172481
C            0.23501628640733       -1.50850633897262       -0.04583026447285
C            0.99477884181761       -0.36187059999018        0.15665764585442
C            0.33154635364795        0.92567230177308        0.08071164125240
O            0.82689745986450        2.02698490837289        0.05058435563483
N           -1.05893564803391        0.80545120164707       -0.03744421070916
C           -1.81470469922104        2.05771636365441       -0.08640492404375
C           -1.81594596244191       -0.33873696618594       -0.06639227915902
O           -3.02469012134528       -0.29650356874577       -0.10936394195628
N           -1.12778924715420       -1.55679518060479       -0.07240460091744
C           -1.94627379207775       -2.76136553594232       -0.07033216248996
H            4.23510198780474        3.22543965219996        0.96615318080270
H            4.07782680346024        3.36766756810446       -0.89733780125024
H            2.77426517058318        2.67000359922652        0.09101160388191
H            3.26730663014123       -2.56036018918719        0.03145482864583
H           -1.10712841463385        2.88783126648301       -0.08977963888416
H           -2.40938651017386        2.08014141183383       -0.99531325930859
H           -2.44810115901457        2.12805072186308        0.79506419388784
H           -1.80474616184121       -3.35558916243632        0.83425330580424
H           -1.78212730468915       -3.37806024479061       -0.95293533364381
H           -2.98146811263965       -2.41689680463467       -0.08644477526446
H            0.96033084517223       -3.53472329855809       -0.10686630810494
