25
 energy: 41.131337972302 xtb: 6.6.1 (8d0f1dd)
C            3.63957838569973        2.74754025771190        0.07938066454803
N            2.35183773329573       -0.66690949621628        0.28772193152508
C            2.41872079095681       -1.90922485304563        0.03902926935301
N            1.19520425363737       -2.51402542827205       -0.09171135121926
C            0.28694203257349       -1.48689735333409       -0.02107858899160
C            1.03622370371729       -0.32450777672266        0.13458844829748
C            0.32498475759833        0.96686971052381        0.09238706513167
O            0.78541330633791        2.08289004588020        0.07850452088444
N           -1.05409666160471        0.82000169632065       -0.03638388207429
C           -1.83617728207760        2.05592959837834       -0.07612563017014
C           -1.79050239618231       -0.34670201860472       -0.06892071805963
O           -2.99738192566811       -0.30408068677363       -0.11835126267085
N           -1.07543257216375       -1.54812686732627       -0.06199747385700
C           -1.89037565128506       -2.74577751971818       -0.06918454638075
H            4.14378578100472        2.93252905956004        0.98057538612447
H            3.94051639851364        3.03243952363123       -0.88537124980554
H            2.61414592924157        2.69097640457453        0.17862630233730
H            3.34065166869833       -2.43074826278719        0.02411729454529
H           -1.15006485552147        2.89237830685431       -0.05758149693251
H           -2.42704208402968        2.09688863282410       -0.98706552387230
H           -2.47407617600090        2.13083740221966        0.80183506804562
H           -1.76440778844721       -3.35430229296423        0.82867399203314
H           -1.73721279801154       -3.36224392740952       -0.95529920060246
H           -2.92490653234151       -2.37350027611154       -0.08699307769924
H            1.07749742051116       -3.51228884672239       -0.08781294191082
