25
 energy: 30.133234188210 xtb: 6.6.1 (8d0f1dd)
C            3.85207541836888        3.19755286198838        0.12650366112911
N            2.27189101938036       -0.71723648589672        0.05753658131253
C            2.30682129540772       -2.00501871680449        0.02164855669313
N            1.05501870705517       -2.58072510314795       -0.04798703316849
C            0.18359085757941       -1.53980505464332       -0.02568485788914
C            0.94431428790503       -0.38336825880649        0.03138614104623
C            0.31551884473212        0.91292956514072        0.01825615622210
O            0.85357881410799        1.99378022475821        0.03161243888445
N           -1.08503381216997        0.81229605821675       -0.03436597350681
C           -1.84106747740378        2.05607436202457       -0.06329838312170
C           -1.85174545947436       -0.33118330839479       -0.06189688455786
O           -3.06134048265192       -0.30107551304751       -0.08822918342714
N           -1.17208011980408       -1.54995089555032       -0.06011511574441
C           -1.92748296430374       -2.78171844237199       -0.07467589207260
H            4.29184077267115        3.43849557845887        1.06105239522634
H            4.40127210184248        3.32284866035968       -0.78112233171608
H            2.84059771277128        2.85784229158324        0.10484641009581
H            3.18948852297927       -2.60722599035720        0.01600035945314
H           -1.13961698578051        2.88633287602092       -0.04804590569407
H           -2.45267288699977        2.09667835528889       -0.96398753435131
H           -2.50319893229770        2.11277095718691        0.79949816416503
H           -1.72046998827967       -3.36559473907084        0.82200547597045
H           -1.69499167825414       -3.36569539853664       -0.96593957582239
H           -2.98216758789646       -2.51268772580561       -0.08781207624364
H            0.85927394022396       -3.56866776808597       -0.02150955276885
