25
 energy: 0.000000000000 xtb: 6.6.1 (8d0f1dd)
C            3.23720163006194        1.16630919979326        0.08434469647475
N            2.29877817382611        0.07527477071623        0.03981603040599
C            2.58028210190900       -1.21425402444508        0.03006176031096
N            1.43813958087363       -1.93419271955128        0.00098261760884
C            0.39035688448383       -1.05887472636071       -0.00790371836672
C            0.93510056364412        0.21347819449412        0.01709077491437
C            0.09450143893243        1.40504303904423       -0.00410947031874
O            0.49712751527797        2.54126714362870       -0.00342325688240
N           -1.25076640035757        1.06271879480407       -0.03085478223738
C           -2.21907211982101        2.15522099834493       -0.05001256985998
C           -1.81739487048744       -0.20012725993278       -0.04692818574614
O           -2.99983886758376       -0.37846417018721       -0.07008878229737
N           -0.92618586207120       -1.30210215599479       -0.03682761578324
C           -1.46982264913417       -2.64643102187190       -0.06029820460571
H            3.71247264356769        1.21471455160235        1.06488849150277
H            4.00791497605742        1.03430808813993       -0.67357694370751
H            2.69910007168542        2.09770118228144       -0.09130154882931
H            3.56654120610678       -1.63682992603973        0.04233140067262
H           -1.67107961066214        3.09322851271934       -0.02552706933167
H           -2.82428953597071        2.09428624779827       -0.95318082946668
H           -2.87644029173232        2.07745725625962        0.81450067533302
H           -1.17061996399332       -3.19584890659852        0.83242232437030
H           -1.14560257411436       -3.17511610292205       -0.95688275822323
H           -2.55549792440841       -2.55659984320617       -0.07459039797972
H            1.38130855184625       -2.94313852034425       -0.01389874181052
25
 energy: -1.956239985912 xtb: 6.6.1 (8d0f1dd)
C            3.24278260770104        1.18753149291032        0.09026526329052
N            2.30578520446506        0.10648125117778        0.02985881251690
C            2.59960026250858       -1.21948929602670        0.01415857443465
N            1.43090296540646       -1.93088450748319       -0.02005043212988
C            0.39522864880602       -1.05328297828208       -0.01274519470028
C            0.92784679776807        0.22940126631982        0.00542000687357
C            0.10469633222079        1.40596783564438       -0.01212004331837
O            0.50416021519853        2.57089055968555       -0.00749636393305
N           -1.25630847893335        1.06152049618846       -0.04070743966555
C           -2.21065591992361        2.16713114060774       -0.04994511220597
C           -1.81899856116638       -0.19448833410605       -0.05699073530807
O           -3.01666293815982       -0.36742910160193       -0.08090478347461
N           -0.93526438754612       -1.31102213457351       -0.01978254850352
C           -1.47281825593453       -2.67323139985009       -0.01956360573532
H            3.71840908364402        1.22467138417614        1.07400308707871
H            4.01401774719658        1.05734150575204       -0.67028664497799
H            2.70029025762872        2.11554273241598       -0.07932258923310
H            3.57854076760333       -1.64166551034026        0.02795617891504
H           -1.64792937816738        3.09892157985455       -0.02565101091025
H           -2.82363970493695        2.12356552010782       -0.94968617359234
H           -2.86349827385758        2.10095443027825        0.81989519252948
H           -1.28124299704552       -3.37021099202967        0.86300747520654
H           -1.09615805151467       -3.21288587684053       -0.88082345541361
H           -2.55576168096924       -2.55214603221189       -0.12877751325585
H            1.36889240594414       -2.93415642960089       -0.04267704834036
25
 energy: 7.499034598776 xtb: 6.6.1 (8d0f1dd)
C            3.24570022649132        1.20812537913209        0.09811833382885
N            2.30753675016261        0.13536251723158        0.01112997840397
C            2.61263605778764       -1.21581604193373       -0.01499019203770
N            1.42502823340063       -1.91771097136293       -0.05145334672647
C            0.39711680186659       -1.04976465811868       -0.01824054728974
C            0.91698175867394        0.24416629809780       -0.00862022457165
C            0.11617797289032        1.40210290838748       -0.02043947626327
O            0.50177810175862        2.58398337084328       -0.01388637312399
N           -1.26308015910902        1.05908023439006       -0.05095777243345
C           -2.19623816834940        2.18473853892590       -0.05049959628069
C           -1.81698217732587       -0.19261486877674       -0.05435737972279
O           -3.02149948718708       -0.35548122551931       -0.09938351774486
N           -0.94566073740670       -1.33180104072332        0.01458688593677
C           -1.48451554365399       -2.70947423691548        0.02519558635631
H            3.72244630144224        1.23256159352966        1.08435545560701
H            4.02171865652686        1.09210086161548       -0.66228015188856
H            2.70448144397850        2.13904942679533       -0.05836685985549
H            3.58641941056725       -1.63418217816934        0.00260063251927
H           -1.61081154459383        3.10590941248904       -0.02779334441697
H           -2.82115089201515        2.16640866357538       -0.94374624824102
H           -2.84119131961147        2.13718043290455        0.82745929108029
H           -1.44387830694279       -3.55002662585680        0.91243458474235
H           -1.00600162665961       -3.27449743199226       -0.77403185653575
H           -2.55846138568676       -2.55228575211766       -0.21508349363732
H            1.36366430093134       -2.91808600425937       -0.08471647155782
25
 energy: 15.290444987062 xtb: 6.6.1 (8d0f1dd)
C            3.24265564873027        1.21720975986973        0.10642994267986
N            2.30370708748510        0.14536699832518       -0.00790855016746
C            2.61187377308437       -1.20988764669443       -0.04530649630736
N            1.42287916284519       -1.90821863566668       -0.07682635033857
C            0.39084912761760       -1.05079268204231       -0.02348276234352
C            0.90868992669053        0.24860244033082       -0.01729997046991
C            0.11989828264877        1.40471211042418       -0.02442656824026
O            0.49717282952748        2.58877787815524       -0.01779893041504
N           -1.26839548112624        1.06140596413961       -0.05685030111937
C           -2.18392106612637        2.20169580322690       -0.05099520630515
C           -1.82007430958624       -0.19141174379775       -0.05199901623893
O           -3.02465217116825       -0.34750676641664       -0.11425676190274
N           -0.95632081533759       -1.34747131614660        0.03987404682910
C           -1.49675161467028       -2.73792265509426        0.05019311464432
H            3.71682126970676        1.22765198263363        1.09529499954656
H            4.02498169357067        1.11876747271345       -0.65085948404086
H            2.70654721719370        2.15460343108884       -0.03560093133690
H            3.58685038499673       -1.62502529243909       -0.02391379540060
H           -1.57707983483292        3.11091804822874       -0.03113679380466
H           -2.81502065904785        2.20259751079771       -0.93988180868922
H           -2.82159779980578        2.17036301648705        0.83307942438942
H           -1.54646398491307       -3.62925753096573        0.95448918481505
H           -0.92631601754398       -3.32511269913826       -0.68200118624473
H           -2.55036381605774       -2.58183478419802       -0.28069596205679
H            1.36624583405533       -2.90920206164931       -0.12108594133496
25
 energy: 17.979038397268 xtb: 6.6.1 (8d0f1dd)
C            3.23867985441879        1.21758136211567        0.11175573912069
N            2.30030229256769        0.14490389302482       -0.02145549766564
C            2.60652417824000       -1.20543508683069       -0.06454046857541
N            1.42260817686393       -1.90340521647853       -0.08838857562208
C            0.38423176825477       -1.05185358305851       -0.02735492428601
C            0.90507226945666        0.24819379341093       -0.01951158547183
C            0.12064861484260        1.40915047254240       -0.02525883424362
O            0.49639953766474        2.58936709214275       -0.01939570588486
N           -1.27078694815281        1.06528653502999       -0.05734126891880
C           -2.17854986868566        2.21099097832515       -0.05258373302774
C           -1.82412567279982       -0.18899781454669       -0.04863840542002
O           -3.02621080293515       -0.34327638226539       -0.12107405988798
N           -0.96225548169736       -1.35238465197096        0.05281671152198
C           -1.50158632984460       -2.75012115009818        0.05644360020880
H            3.70813237765569        1.21842552534687        1.10291443744527
H            4.02505963040548        1.12916926154665       -0.64217363035761
H            2.70546362622379        2.15825777006138       -0.02291962320408
H            3.58358334780421       -1.61931904920947       -0.03649450779446
H           -1.56209488367563        3.11373649862910       -0.03638061026026
H           -2.81048803262738        2.21912976574814       -0.93974775037709
H           -2.81259730749628        2.18927087514070        0.83372581376004
H           -1.57834628210110       -3.65649220877170        0.96741356645525
H           -0.89541626762878       -3.33931242756260       -0.63070980262758
H           -2.53200620170438       -2.60838544564221       -0.30516892374291
H            1.36997307288675       -2.90545220445759       -0.13889806499676
25
 energy: 18.293921968221 xtb: 6.6.1 (8d0f1dd)
C            3.23630126482993        1.21419849650207        0.11080568119717
N            2.29884921582438        0.14116960019013       -0.03157090379488
C            2.60129625724712       -1.20313021381629       -0.07583438167859
N            1.42248803296108       -1.90207457016918       -0.08868307604994
C            0.37962094624098       -1.05249887590984       -0.02724791584849
C            0.90430026194757        0.24657043967889       -0.01713527383498
C            0.12116339811714        1.41189683206049       -0.02404425853562
O            0.49818641002613        2.58857013816118       -0.01822051970793
N           -1.27105070926905        1.06757098477319       -0.05391017029694
C           -2.17837729623473        2.21283148541693       -0.05073638864605
C           -1.82735875276841       -0.18658346181086       -0.04694800045438
O           -3.02707668653525       -0.34185771024484       -0.12272386890044
N           -0.96433745253067       -1.35121053723222        0.05987664362116
C           -1.50356312374167       -2.75137671737930        0.05414371109742
H            3.70248196884497        1.21090554421819        1.10283894861118
H            4.02382488607005        1.12821119546622       -0.64121381561150
H            2.70371881406346        2.15515797878542       -0.02259816703931
H            3.57943902422528       -1.61745354217917       -0.03899595412284
H           -1.56177775930127        3.11452784035452       -0.03692094634338
H           -2.80997869290789        2.22086602592529       -0.93736223071315
H           -2.81092385583300        2.19386548911453        0.83589465439253
H           -1.59368885736924       -3.65125274646052        0.97737669722007
H           -0.86581558121397       -3.33769194094756       -0.59782454290870
H           -2.51741998826462       -2.61755008404403       -0.33927453648816
H            1.37191294350788       -2.90463304828124       -0.14265748901695
25
 energy: 17.660793612213 xtb: 6.6.1 (8d0f1dd)
C            3.23616091031495        1.21205143081781        0.10883829895440
N            2.29878990635029        0.13928269616884       -0.03621316666338
C            2.59901780885288       -1.20292701050072       -0.08045416268890
N            1.42154439295218       -1.90286170640958       -0.08553056765888
C            0.37791260191855       -1.05247288507405       -0.02643482477317
C            0.90438826490124        0.24595236902328       -0.01489566777101
C            0.12119794665612        1.41181283271096       -0.02346135905371
O            0.49912675925969        2.58805370984408       -0.01781794963464
N           -1.27063502530313        1.06761327665165       -0.05053554812918
C           -2.17940677978679        2.21177389481226       -0.04933837907310
C           -1.82899254072723       -0.18521444684803       -0.04454810470734
O           -3.02802119274620       -0.34169558265722       -0.12212645405802
N           -0.96487834745231       -1.34842768840403        0.06274071609455
C           -1.50373280798580       -2.74828001095031        0.04923000158484
H            3.70096786263191        1.20860171577599        1.10117618748683
H            4.02420794154049        1.12483228470195       -0.64226705646640
H            2.70368270734654        2.15260387047916       -0.02595468091335
H            3.57679851597849       -1.61854335222780       -0.03421877115098
H           -1.56494436212505        3.11486468382624       -0.03622042746644
H           -2.81099155590558        2.21712152781963       -0.93623129402000
H           -2.81240516559198        2.19222842405248        0.83691565387810
H           -1.59319179328905       -3.64128398803274        0.97563607922799
H           -0.85592408175005       -3.33162715235243       -0.58732748410291
H           -2.50937729922342       -2.61916022568636       -0.35332265926063
H            1.37092000111943       -2.90527006536910       -0.14060448348740
25
 energy: 17.256676803150 xtb: 6.6.1 (8d0f1dd)
C            3.23652799366055        1.21137434095249        0.10714187235226
N            2.29898868349330        0.13901323400594       -0.03859404003437
C            2.59873571368835       -1.20351583625500       -0.08388893714198
N            1.42069572440028       -1.90389548616983       -0.08326799408884
C            0.37767636581407       -1.05246236992229       -0.02525174434222
C            0.90441805993327        0.24588028071166       -0.01398518792503
C            0.12095669188817        1.41105031022490       -0.02327560843695
O            0.49904336952687        2.58797489704359       -0.01774054228974
N           -1.27052249872602        1.06719205974703       -0.04875715446698
C           -2.18012427756479        2.21095553375651       -0.04803721170664
C           -1.82946221093758       -0.18470108686488       -0.04381138331230
O           -3.02853701435381       -0.34191102852853       -0.12114204909447
N           -0.96515909338361       -1.34683903550414        0.06493475836812
C           -1.50371953661295       -2.74614444017032        0.04729836811431
H            3.70100202830666        1.20824591568365        1.09965734480493
H            4.02481717979156        1.12306508481693       -0.64374267675831
H            2.70410912096207        2.15179903343582       -0.02849562920717
H            3.57573103844331       -1.62008676717153       -0.02973929224628
H           -1.56691305220124        3.11507664494661       -0.03467760320213
H           -2.81173877932390        2.21474679693336       -0.93524554015579
H           -2.81373185431303        2.19024931139899        0.83792857333607
H           -1.59578759018762       -3.63445384879161        0.97560203086941
H           -0.84726665332581       -3.32944071169643       -0.58230362699848
H           -2.50717401465080       -2.61810077594936       -0.36407155866124
H            1.36964927360891       -2.90604345446154       -0.13950127162888
25
 energy: 16.925822776605 xtb: 6.6.1 (8d0f1dd)
C            3.23681895233530        1.21140562657287        0.10648055814541
N            2.29912970446429        0.13930876765712       -0.03978957603440
C            2.59921705107953       -1.20402182967743       -0.08728696994431
N            1.42027615442400       -1.90470911720171       -0.08196683347336
C            0.37807243465854       -1.05256253406590       -0.02448655576106
C            0.90448258505197        0.24582937763172       -0.01384684681522
C            0.12052766878421        1.41021691466879       -0.02339654457903
O            0.49858158630553        2.58774766030307       -0.01817871634151
N           -1.27047476724418        1.06675415323676       -0.04795563939487
C           -2.18043256339903        2.21050762547465       -0.04774967059121
C           -1.82931124707710       -0.18477356595843       -0.04314810165242
O           -3.02857701089143       -0.34244837124243       -0.12033646998632
N           -0.96515720824981       -1.34607523343661        0.06664752649794
C           -1.50324425780861       -2.74500142231521        0.04652246237397
H            3.70105417434169        1.20853784158396        1.09923805654401
H            4.02548151235101        1.12262144139025       -0.64415737988645
H            2.70453567223114        2.15189356339206       -0.02955606416266
H            3.57538926909339       -1.62118297668890       -0.02469027001983
H           -1.56773653808896        3.11512784074451       -0.03399057855218
H           -2.81185059792415        2.21348306469761       -0.93531945647945
H           -2.81469697507014        2.18900812199200        0.83790952653504
H           -1.59553362040733       -3.63158071432714        0.97283662451505
H           -0.84762609633420       -3.32735731364644       -0.58224584582722
H           -2.50565897211292       -2.61707274928315       -0.36502075334522
H            1.36894775742344       -2.90662756933005       -0.13947858561746
25
 energy: 16.635703516014 xtb: 6.6.1 (8d0f1dd)
C            3.23685574712342        1.21158505306676        0.10601362963463
N            2.29902448549007        0.13979245538031       -0.04109892309983
C            2.59995102085281       -1.20439572617877       -0.09324463882505
N            1.42000133101745       -1.90529653615605       -0.08119528486292
C            0.37855780327426       -1.05277714510177       -0.02339920322023
C            0.90445651225839        0.24562786798686       -0.01391708076316
C            0.11995085878015        1.40956163712934       -0.02337082550770
O            0.49810833113302        2.58737120944143       -0.01864883089859
N           -1.27051948275490        1.06659316704913       -0.04747700164905
C           -2.18053523220942        2.21047388102967       -0.04760477014510
C           -1.82892824190375       -0.18505925830098       -0.04257582847749
O           -3.02841969918519       -0.34296837203295       -0.11994611256120
N           -0.96521634563930       -1.34573804637858        0.06892579810496
C           -1.50285020259648       -2.74470693440496        0.04698235111080
H            3.70091427804422        1.20852242966629        1.09901300791977
H            4.02583914731905        1.12289923365754       -0.64439743431413
H            2.70482103103358        2.15230524452887       -0.02985389682634
H            3.57511978151200       -1.62189016388487       -0.01825593479772
H           -1.56782680490206        3.11509891738218       -0.03337409254530
H           -2.81161083717250        2.21331032900380       -0.93547783144688
H           -2.81525179528088        2.18844274998365        0.83781732353813
H           -1.59698740990522       -3.62934381588436        0.97063437887770
H           -0.84702828916125       -3.32686724384945       -0.58200168091999
H           -2.50487479830478       -2.61651451011425       -0.36554469135948
H            1.36866347911352       -2.90699782084683       -0.14096853081852
25
 energy: 16.273199819588 xtb: 6.6.1 (8d0f1dd)
C            3.23656367642352        1.21173377704002        0.10565265311412
N            2.29860118604224        0.14029691491551       -0.04278451369848
C            2.60081544352337       -1.20439312286820       -0.10405101674364
N            1.41998252671519       -1.90559990279865       -0.08075997509025
C            0.37907028010224       -1.05313674657630       -0.02176906180865
C            0.90441141830918        0.24511960571357       -0.01382305061932
C            0.11922715192543        1.40909984467003       -0.02302855109287
O            0.49779157529232        2.58665753004394       -0.01893658293397
N           -1.27052819494656        1.06661131435611       -0.04714922996129
C           -2.18045991410214        2.21060570544554       -0.04765309761739
C           -1.82829348673163       -0.18575072846991       -0.04192412160615
O           -3.02792646753228       -0.34360642340315       -0.12011992067787
N           -0.96510936142338       -1.34579606464676        0.07194572013097
C           -1.50243622288783       -2.74533117462265        0.04875221167850
H            3.70038351245050        1.20786777660939        1.09889832282349
H            4.02583042008031        1.12369191670449       -0.64445937424784
H            2.70494922473356        2.15284959755365       -0.02946978618901
H            3.57456888811492       -1.62184282270675       -0.00817695839814
H           -1.56736470871791        3.11485965247465       -0.03308814556108
H           -2.81107154866263        2.21380935621014       -0.93575750835563
H           -2.81542732310737        2.18850851237600        0.83757341984954
H           -1.59913399203792       -3.62698587694835        0.96833222978693
H           -0.84704845446061       -3.32691963333721       -0.58176393295482
H           -2.50418349918055       -2.61624512770650       -0.36531631121692
H            1.36900253801421       -2.90707527785664       -0.14408952246296
25
 energy: 16.045389770598 xtb: 6.6.1 (8d0f1dd)
C            3.23621215727248        1.21164263549161        0.10552377175126
N            2.29817783004842        0.14037186838839       -0.04366497080996
C            2.60110356196183       -1.20396286751130       -0.11346162144427
N            1.42014139462150       -1.90540861170895       -0.08098895662581
C            0.37913458800731       -1.05330474937075       -0.02056899718418
C            0.90441734777991        0.24469441076301       -0.01326663056610
C            0.11894282843333        1.40918874296231       -0.02245294668212
O            0.49792228109352        2.58617261096507       -0.01862395533629
N           -1.27043196943493        1.06671973932388       -0.04705265975576
C           -2.18027507532021        2.21067287843022       -0.04779201862196
C           -1.82796020582516       -0.18633480143931       -0.04162334447750
O           -3.02752079855242       -0.34380908747288       -0.12085758750245
N           -0.96484618656939       -1.34608982846743        0.07343176606033
C           -1.50239908124161       -2.74637983350261        0.05038346797778
H            3.69989721555904        1.20693037245984        1.09883633158552
H            4.02550079587982        1.12416269967721       -0.64443970496445
H            2.70493927183097        2.15303643702573       -0.02886749624022
H            3.57366556187136       -1.62090343892436       -0.00029258049052
H           -1.56685315096915        3.11461669899965       -0.03340823054604
H           -2.81074874831600        2.21426956693710       -0.93585566917203
H           -2.81508723894610        2.18908871314148        0.83745301257016
H           -1.60022949661111       -3.62556415052734        0.96752898347196
H           -0.84709231775883       -3.32748755152624       -0.58157425185398
H           -2.50389564679696       -2.61651227596273       -0.36470109316430
H            1.36949974991853       -2.90678157597961       -0.14663072183179
25
 energy: 15.982200068676 xtb: 6.6.1 (8d0f1dd)
C            3.23601747889839        1.21144938693438        0.10551025623903
N            2.29796190451303        0.14015592998962       -0.04360216265408
C            2.60103954365523       -1.20341580333528       -0.11998126308062
N            1.42035057512252       -1.90498346029053       -0.08166670646442
C            0.37897310280005       -1.05323996072939       -0.01983606136522
C            0.90452469085193        0.24452740017284       -0.01235641686244
C            0.11908212133891        1.40955401379607       -0.02184835627476
O            0.49820210850695        2.58605069693749       -0.01799709518209
N           -1.27028266129471        1.06676313799656       -0.04707093301059
C           -2.18009638650209        2.21058888360806       -0.04794849455678
C           -1.82791524450442       -0.18666672059146       -0.04160015819270
O           -3.02729245381169       -0.34370102489900       -0.12162114657598
N           -0.96445228064989       -1.34641569039831        0.07343834526504
C           -1.50257773344863       -2.74732299386675        0.05138391687900
H            3.69970247519099        1.20625038738223        1.09875821960519
H            4.02515305145101        1.12415304382347       -0.64445768200933
H            2.70493970200363        2.15295315999236       -0.02848069779245
H            3.57265135106804       -1.61965421190074        0.00470318738287
H           -1.56658489445820        3.11446068751391       -0.03406871888916
H           -2.81073374916816        2.21431841429268       -0.93580579659670
H           -2.81456169331880        2.18971127441187        0.83745640523632
H           -1.60019965256778       -3.62537194055073        0.96794403531272
H           -0.84746851162392       -3.32800036017066       -0.58168204292553
H           -2.50398045437436       -2.61678559332366       -0.36413919597915
H            1.36976227825814       -2.90635005462305       -0.14799754136087
25
 energy: 16.038353307410 xtb: 6.6.1 (8d0f1dd)
C            3.23605814402334        1.21122839679788        0.10545830501688
N            2.29799242591333        0.13974869710170       -0.04270002958473
C            2.60085340708479       -1.20294088911959       -0.12527546313156
N            1.42043215366341       -1.90453586604014       -0.08281832421334
C            0.37872254907452       -1.05294930357847       -0.01930103108161
C            0.90475415470780        0.24464559050383       -0.01102891807062
C            0.11953543724871        1.41000826012222       -0.02121253575980
O            0.49839742300963        2.58629789918071       -0.01722631689260
N           -1.27010898327200        1.06670014542748       -0.04705795736451
C           -2.17998271069507        2.21037230884508       -0.04805031914544
C           -1.82812874105168       -0.18666154439913       -0.04178575314616
O           -3.02728547663043       -0.34338909997806       -0.12214668934032
N           -0.96396674287396       -1.34658942177552        0.07227842441895
C           -1.50286861080165       -2.74786636113620        0.05154059399154
H            3.69985362006171        1.20607379681655        1.09858938026677
H            4.02496365524547        1.12361539868849       -0.64460749672305
H            2.70506284430024        2.15270069211040       -0.02858580901574
H            3.57155517094043       -1.61854028471971        0.00887022839446
H           -1.56668531573156        3.11446456025460       -0.03480312607328
H           -2.81099422521454        2.21383399444017       -0.93564527006071
H           -2.81408160320567        2.19011747132461        0.83757383191936
H           -1.59903267362574       -3.62606174338585        0.96908508352843
H           -0.84795893903715       -3.32836946259785       -0.58213655464527
H           -2.50428374966146       -2.61692364742840       -0.36355588371116
H            1.36941145446373       -2.90595098528280       -0.14842447342917
25
 energy: 16.117753968740 xtb: 6.6.1 (8d0f1dd)
C            3.23623469925925        1.21129007227824        0.10534683291481
N            2.29817721359143        0.13967632154680       -0.04196617390559
C            2.60099066346802       -1.20307509065989       -0.12576940333683
N            1.42031799286429       -1.90462626114514       -0.08329962127348
C            0.37882518850796       -1.05283041007535       -0.01919195735168
C            0.90488203479839        0.24482394797876       -0.01067214435506
C            0.11968871239707        1.40995098752640       -0.02114978237449
O            0.49818267531398        2.58650557716090       -0.01727617713496
N           -1.27009659498347        1.06661957838440       -0.04699129803965
C           -2.18004565891297        2.21031598775453       -0.04802018679596
C           -1.82823198673265       -0.18638923984002       -0.04186929350892
O           -3.02740957746180       -0.34337719257870       -0.12181449276155
N           -0.96387318583169       -1.34644719321397        0.07161832933738
C           -1.50281822022298       -2.74741755920941        0.05089814030889
H            3.70013632697366        1.20664565317735        1.09847182657779
H            4.02511004357520        1.12326194025933       -0.64476645159362
H            2.70516582811000        2.15268076315527       -0.02906204895203
H            3.57147736856786       -1.61883911110561        0.00983439864350
H           -1.56696634220775        3.11459328381345       -0.03470646797487
H           -2.81111350923724        2.21348676098367       -0.93564574124083
H           -2.81423715000919        2.18982387165812        0.83758500355573
H           -1.59816516025504       -3.62682885427246        0.96949683749547
H           -0.84833618404574       -3.32813051708203       -0.58267078967001
H           -2.50454017922437       -2.61661826555893       -0.36334235598810
H            1.36885966963395       -2.90606644876371       -0.14800308642868
