72
 energy: -99.371594678206 gnorm: 0.008750163111 xtb: 6.6.1 (8d0f1dd)
N           -2.54093857207821        3.04665214136410        2.53196918048336
C           -2.26329009765722        2.13871474717892        1.71916658714763
C           -3.11305948312813        1.79749310643277        0.52239924995658
C           -3.64207187158629        0.38715492149825        0.64822508358075
C           -4.27339714407173       -0.22790198670647       -0.44371119763046
C           -4.80084239631180       -1.48951253141693       -0.36199669717445
O           -5.37553412351984       -2.16470032517350       -1.36433496126274
C           -5.59104851192554       -1.53635249538849       -2.61331474982176
C           -4.84914358593280       -2.25241392220579        0.94348448324122
O           -6.20310891097985       -2.28187214771728        1.41035626582266
C           -6.97024764309615       -3.37898309154444        0.97859769855944
C           -4.04897289880848       -1.57406331734222        2.00840816268609
C           -3.53464758864092       -0.33407059108297        1.86032635244818
C           -2.13336346017481        1.89042519520955       -0.69625446609561
C           -1.17531520383208        0.74859936518159       -0.73346982267759
C            0.12476608012387        0.86895581072281       -0.40825326946721
N            1.02744334918042       -0.14062835362657       -0.32434064579595
C            2.42303806708446        0.12501715487909       -0.10839850255250
C            3.24956376350853        0.08606395939548       -1.41265019768641
C            4.70765504284822        0.23075355651848       -1.09195817037984
C            5.33063537570807        1.46969385644893       -1.12347341655890
C            6.66715007261864        1.60236575447049       -0.78172810741296
C            7.41082858997989        0.49637120478497       -0.39163129022398
O            8.70647641543345        0.50615351145233       -0.03369903236851
C            9.41771955899243        1.72251348187604       -0.04525994356207
C            6.78063976048249       -0.78038145635593       -0.35488387243187
O            7.57230194947278       -1.79868043609693        0.03070192335783
C            7.04356473509112       -3.10212189747861        0.08883120212119
C            5.44331816844889       -0.88667982145149       -0.70351264741681
C            0.63770183846943       -1.49203789612020       -0.63366282808901
C           -4.32450279899620        2.75499516160303        0.32146839060634
C           -5.31631432122547        2.63423620906866        1.47669955257784
C           -3.91656913344889        4.21310225714839        0.13614822348314
H           -4.33419804968692        0.30893728240704       -1.37691622318109
H           -6.22033803791621       -0.64923924381718       -2.50441984070298
H           -6.10320429517113       -2.27319749435630       -3.22906360046248
H           -4.64439915841425       -1.26244835923521       -3.08711633728652
H           -6.54590263568858       -4.32406244486439        1.33878527555788
H           -7.95993384040673       -3.23993181014763        1.40894844840651
H           -7.04878878343245       -3.41457859464346       -0.11254286672310
H           -3.98560523098552       -2.09557180418692        2.95004983727692
H           -3.03655958582706        0.12850057996806        2.69819236524100
H           -2.72540837754121        1.90802163932866       -1.61283013951760
H           -1.58913856524205        2.83256401777908       -0.62584368013289
H           -4.51797630350854       -3.28846623964396        0.79775346358721
H           -1.59206557743050       -0.21154213520657       -0.99200135938922
H           -1.34918696688250        1.52707079454890        1.76970330073493
H            0.52441703542049        1.84523313557885       -0.16480558587024
H            2.82270707653313       -0.62218175321243        0.58505746919978
H            2.53530576480230        1.10801788997557        0.35340434180817
H            2.91994640245341        0.89357351330823       -2.06743098980621
H            3.07136441305712       -0.86384623335587       -1.91876052802579
H            4.77518693903321        2.34428560219740       -1.42562873475891
H            7.12516155254411        2.57707496814841       -0.82268503168540
H            8.98329480154218        2.44670760648324        0.65052124058945
H            9.45338720288451        2.15567792156995       -1.04926238076858
H           10.42703296341369        1.47321348378445        0.27667913181233
H            7.86568455507614       -3.73687711081353        0.41363302414561
H            6.22594173823563       -3.17108096841960        0.81336354710123
H            6.69352715443797       -3.43711769114904       -0.89235982937190
H            4.95853830765681       -1.85031047083606       -0.68631460335402
H            0.37383257627056       -1.60259009980390       -1.68969582599924
H           -0.22623588092114       -1.77997893207337       -0.03033727279781
H            1.45880283863178       -2.16692893911101       -0.40540670383327
H           -4.83157740033545        2.42723845376722       -0.59377862646173
H           -4.85363718356283        2.96974591099202        2.39983927199413
H           -5.65164083594823        1.60709614027960        1.60344439812267
H           -6.18498354150398        3.25741314722133        1.27966278358134
H           -3.38399246262266        4.56963058722833        1.01255689370620
H           -3.29426593050192        4.35224287189443       -0.74404639832810
H           -4.81070788371106        4.81898918290978        0.01171340411419
H           -1.88830421987993        3.22399399246494        3.28895466663332
