  25
        -42.14346890
 C          3.1859131288        0.9632911369        0.0348480745
 N          3.3523211566       -0.3824735269        0.0083435919
 C          2.6270667263       -1.3953150186       -0.0095448965
 N          1.2470807088       -1.5638645219       -0.0161754547
 C          0.1455487743       -0.7600579722       -0.0043964600
 C         -0.0799980918        0.6377729002       -0.0033299781
 C          0.7258783794        1.7477829771       -0.0102467340
 O          0.6882588874        2.9234257410       -0.0364059530
 N         -1.4813481348        0.8183754626        0.0047872529
 C         -2.2239683373        2.0572715461        0.0048187641
 C         -2.1065277783       -0.3864265297        0.0078185240
 O         -3.2728049973       -0.6405528568        0.0159061377
 N         -1.0612523534       -1.3536361354        0.0016609679
 C         -1.3719768497       -2.7596823412        0.0012341790
 H          3.6010650637        1.3964271189        0.9485197434
 H          3.6450054228        1.4359947694       -0.8372809212
 H          2.0459736009        1.2912203006        0.0149651106
 H          3.1406781091       -2.3485251999       -0.0241604904
 H         -1.5520609006        2.9087369276        0.0579831604
 H         -2.8218231171        2.1249841083       -0.9050001394
 H         -2.8967941594        2.0720958080        0.8626465301
 H         -0.9823996214       -3.2551309044        0.8921594228
 H         -1.0038035016       -3.2498836640       -0.9017432018
 H         -2.4614430226       -2.8303977856        0.0135714197
 H          0.9814148796       -2.5440654225       -0.0296712834
