25
 energy: 47.923736182874 xtb: 6.6.1 (8d0f1dd)
C            3.29277966680616        1.39661312426985        0.09242123104041
N            2.45793377369216        0.22155447471207        0.05809970630417
C            2.82874841610140       -1.07541451740082        0.05834051917140
N            1.72266361085336       -1.88474546949556        0.02214265001981
C            0.59292437971105       -1.10135611011947       -0.00180264515364
C            1.08411492497283        0.22228865379937        0.02880053855961
C            0.21544832220705        1.35035772115138        0.00520222832328
O            0.56633590755423        2.52711532511709        0.01696300434817
N           -1.10354517071350        0.95399547739938       -0.03539048596204
C           -2.10506697275304        2.01905798150697       -0.05195841461212
C           -1.58731921497553       -0.36325002369465       -0.04598919660972
O           -2.80104701022951       -0.42712792599281       -0.06492302696193
N           -0.70826631885359       -1.42753887182895       -0.03826324736626
C           -2.37758185663084       -2.96682342286755       -0.08647477538985
H            3.83812151288059        1.44818931656311        1.03457784945648
H            4.00637687164757        1.40857558315622       -0.72753616003516
H            2.68265555162595        2.29685519670318       -0.00491602901355
H            3.83757374609841       -1.42619572050707        0.05967977957768
H           -1.53735275037098        2.94721312764952       -0.03263104146610
H           -2.71520727017715        1.95264262716294       -0.95197751788602
H           -2.75344761536784        1.93913032947196        0.81923619837974
H           -2.12889220144529       -3.41938554308293        0.82990344812035
H           -2.09091827679959       -3.39278968301987       -1.00423916993687
H           -3.10882047983116       -2.20645694747174       -0.08701428335866
H            1.77170265321861       -2.89449006048414        0.02052923802100
