25
 energy: 0.560369399285 xtb: 6.6.1 (8d0f1dd)
C            3.25998407761100        1.25269088838334        0.09276928546881
N            2.35803737571428        0.13644310569741        0.02594229635752
C            2.69391093422834       -1.20849361014872        0.03613655759229
N            1.53094381461029       -1.93756667671640        0.00998068198058
C            0.45508963886139       -1.12608767770805       -0.00953438656151
C            0.95912600012692        0.18932517468732        0.00362660820570
C            0.14825134692154        1.34083405407099       -0.01148828687100
O            0.48728482203494        2.52848711727924       -0.01492442197694
N           -1.23392402239134        0.98493360650104       -0.03293701017092
C           -2.19290604738676        2.08595724077736       -0.05036927424803
C           -1.75550296407034       -0.26695625082496       -0.04839916773290
O           -2.96192687916900       -0.42724589568795       -0.07145695511910
N           -0.90939889174135       -1.41330253528219       -0.03811581561607
C           -1.70417561869726       -2.67091410223584       -0.06549022115046
H            3.76514324390712        1.29532808731958        1.06461755676592
H            4.02773342142504        1.17441682697327       -0.68454418901498
H            2.68955056492123        2.17911626266677       -0.04046269150339
H            3.68207726897493       -1.60848831661939        0.04858071287438
H           -1.62737333293865        3.01845026987289       -0.02638751854458
H           -2.79787545282416        2.03272908944774       -0.95478834482376
H           -2.84652802827092        2.01523365723079        0.81760600260029
H           -1.52246417896986       -3.28074945204735        0.82145275111515
H           -1.49510493140734       -3.25877502147716       -0.96106361380295
H           -2.73888041748867       -2.35341753013248       -0.07798209795013
H            1.51791356817493       -2.94074641988162        0.00199682156030
