25
 energy: 45.525759008752 xtb: 6.6.1 (8d0f1dd)
C            3.34855944622413        1.44053184593701        0.08866038664539
N            2.50458229950018        0.27106578699476        0.08459674708336
C            2.88519226194287       -1.01376973197007        0.06692533278363
N            1.79834232414553       -1.83620883224705        0.01830156111082
C            0.66329087388305       -1.05383750265931        0.00110543878828
C            1.13803037654810        0.27248412193338        0.04165518329618
C            0.23557943982021        1.39013401941047        0.01748834280448
O            0.58666346858902        2.56619967189697        0.02594977074380
N           -1.06385994045488        0.95724723517521       -0.03014305973238
C           -2.09459300299909        1.98806659264154       -0.05175912643834
C           -1.51889667065636       -0.38902708577260       -0.04361177605213
O           -2.72746360509111       -0.47628629832908       -0.06344127022035
N           -0.61146942423057       -1.40555210408492       -0.03701427983211
C           -2.63814912779056       -3.10518972236666       -0.09453528871329
H            3.87897022876017        1.51366258176252        1.03734789633154
H            4.07399617979402        1.39553740893256       -0.72063111889569
H            2.74789649240251        2.34306381243125       -0.04730454615182
H            3.89449411980895       -1.36228174930760        0.06301859800910
H           -1.55404253447549        2.93063675680746       -0.03474509705958
H           -2.70732315636880        1.90485652547316       -0.95043317781264
H           -2.74655608855172        1.88847215566194        0.81685001063198
H           -2.35547752030252       -3.54425272105579        0.81692710784730
H           -2.33049596649072       -3.50875339627858       -1.01454421700894
H           -3.28782832663187       -2.27318703277006       -0.08635143439658
H            1.85102471920006       -2.85077964135234        0.01606453268777
