25
 energy: 46.530877807860 xtb: 6.6.1 (8d0f1dd)
C            3.32940318745721        1.42538544203762        0.08999076496907
N            2.48845102290593        0.25430430373444        0.07738860508352
C            2.86605140385812       -1.03321319118735        0.06448376975737
N            1.77487432778780       -1.85251322002533        0.01946703974522
C            0.63952195750055       -1.06994983909572       -0.00010592292897
C            1.12011011086892        0.25572507325807        0.03819358698218
C            0.22739032474473        1.37572649676538        0.01488230477409
O            0.57975457519678        2.55179729008885        0.02709610868818
N           -1.07817148876283        0.95338967690654       -0.03169491259084
C           -2.09598412115969        1.99793455497982       -0.05192583457050
C           -1.54152397619872       -0.38289204048494       -0.04470671634155
O           -2.75195148571717       -0.46035987313764       -0.06397801991690
N           -0.64222071301671       -1.41365714989520       -0.03774568908172
C           -2.55741569749937       -3.06300670740780       -0.09160621530141
H            3.86881199195860        1.48831986924908        1.03465588879155
H            4.04360349957774        1.39851264467036       -0.72872576726374
H            2.72522602286287        2.32736207140326       -0.03154559050604
H            3.87364217866183       -1.38735791238332        0.06488775074177
H           -1.53614707429965        2.92905618302535       -0.03517208837706
H           -2.70826801412732        1.92143066282512       -0.95103068547223
H           -2.74720789175060        1.90661271725912        0.81769684784567
H           -2.27466414558736       -3.50272876313900        0.82042204398544
H           -2.24872834558733       -3.47020533575656       -1.01036504935703
H           -3.22809378619258       -2.24774739184041       -0.08544309065210
H            1.83927902136879       -2.86597042108173        0.02116519296336
