25
 energy: -42.090187516034 gnorm: 0.005165580081 xtb: 6.6.1 (8d0f1dd)
C            3.15680253456596        1.20133773487571        0.01578910405214
N            2.20985285547606        0.12006392340243       -0.00114816513141
C            2.51648527489194       -1.18150980839719       -0.00691314045140
N            1.35520652287618       -1.87548374531452       -0.00656162829517
C            0.30141780467592       -1.00942013216867       -0.00070535746086
C            0.84168201592184        0.27045726673306        0.00502728878265
C            0.00496425472663        1.44824944617292       -0.00271956489797
O            0.38610619020822        2.59513576871543       -0.01386516763086
N           -1.35001057065901        1.10759186248825        0.00134381499833
C           -2.31643802777192        2.19417613530694        0.00073965360841
C           -1.90688693449602       -0.16062375376651        0.00273443618122
O           -3.09506281593185       -0.33514894216305        0.00538104019504
N           -1.02044659058835       -1.25314175996938       -0.00043271538632
C           -1.55830071893859       -2.59695766937989       -0.00425382814999
H            3.65851825451718        1.24419390924103        0.98400799669435
H            3.90889077096138        1.04432019702429       -0.75636032394407
H            2.63457615676814        2.14201387332639       -0.15572254003676
H            4.92683277044734       -2.84630998890385       -0.00988129360465
H           -1.77323329760318        3.13659861827854        0.00929539869924
H           -2.94775009555833        2.12828739991236       -0.88647066312478
H           -2.95922176454113        2.11765579763128        0.87872222682033
H           -1.22921415872343       -3.13976820973527        0.88275453483122
H           -1.24360548078559       -3.12942971622528       -0.90278366699298
H           -2.64508267454332       -2.52049583265770        0.00460245800507
H            1.30434923820394       -2.88355383282734       -0.01140827986085
