72
 energy: -99.278562446416 gnorm: 0.003429157878 xtb: 6.6.1 (8d0f1dd)
N           -2.11967077753418        2.32523454437878        2.47777226509986
C           -2.76330725828089        1.62736603154153        1.65657738640125
C           -3.29843821441724        1.97653261023928        0.26143589963007
C           -3.84456298454067        0.54405193603606        0.28267906722203
C           -4.60869843329365       -0.10110442878091       -0.71215379516906
C           -4.97738234506177       -1.41235094360249       -0.74494914311693
O           -5.68366372441813       -2.00439126535882       -1.70963546913404
C           -6.12950005052706       -1.26251394483991       -2.82843463952424
C           -4.53137619618017       -2.41977494000487        0.28221359654247
O           -5.07477104529342       -2.22679631101103        1.50408678122647
C           -4.72905638638179       -3.19875514737185        2.47042800346560
C           -3.67892062074497       -3.34648726043884       -0.07475302628300
C           -3.32804133054006        0.29446834283310        1.52756037511195
C           -2.22287053882853        2.24521332722582       -0.79733546517118
C           -1.32955879088826        1.05042136222903       -1.13748315557823
C           -0.31635595801535        0.72269043742720       -0.03435558413465
N            0.64919333112331       -0.25570507609912       -0.47022415189342
C            2.03331059700642       -0.07627080901175       -0.11302144413071
C            2.94323276274755       -0.16483141665206       -1.35728344629231
C            4.37978136875286        0.02560869888861       -0.97476512523000
C            5.01361449377518        1.24932545312119       -1.14936909363590
C            6.33754697510814        1.42548156002481       -0.78225086935696
C            7.06088871162576        0.38131185117767       -0.21857085547082
O            8.34525772572441        0.43359506535379        0.16762650584361
C            9.07570994947741        1.62638557743313       -0.00683541463872
C            6.41595642615239       -0.87519322146095       -0.01955208560349
O            7.18192228695656       -1.82829649133006        0.53882615049498
C            6.64002503103157       -3.10750435483024        0.77002726354609
C            5.09150053382487       -1.02641411981363       -0.40323318239258
C            0.19010860283446       -1.61795066138315       -0.46667179362096
C           -4.37679497010240        3.07642054014314        0.27755819537938
C           -5.47338037412402        2.76242379000236        1.29437050388195
C           -3.76064362630262        4.43860592118041        0.58526632993450
H           -4.92397262109545        0.54103245415279       -1.52468395014350
H           -6.81007465964230       -0.46208654379635       -2.52678941361548
H           -6.66382475083913       -1.97365025297903       -3.45585294875060
H           -5.28811744284267       -0.84169134339253       -3.38628220646876
H           -3.64883609510555       -3.19329687254424        2.65820062744192
H           -5.27337862473938       -2.93615193487354        3.37609173378790
H           -5.01751760634118       -4.19882292988990        2.13153405295680
H           -3.20809701058308       -3.64247656013996       -0.98156594014529
H           -3.35427309846096       -0.54167932853646        2.19892576885921
H           -2.72391658219324        2.56445203574534       -1.71425491935803
H           -1.59911585862609        3.06953753781261       -0.45066282514068
H           -1.95037169667348        0.17695714580430       -1.34581840359540
H           -0.77007164962936        1.28454454881869       -2.04524329477931
H           -0.85017923449469        0.35918653423160        0.85443836931540
H            0.20576804380266        1.64109477904830        0.23804286441068
H            2.34996107308303       -0.83784173252237        0.61151665674396
H            2.17300908718065        0.90397238078802        0.34626244704352
H            2.63570822331449        0.60339947248140       -2.06640527982007
H            2.80885355548847       -1.13951258193672       -1.82802727836468
H            4.47468945372660        2.07538703901574       -1.58675337456955
H            6.80397098762190        2.38411693729587       -0.94089598048583
H            8.63769239053775        2.45099420950858        0.56303054006316
H            9.13935507157431        1.90465882922873       -1.06283973689311
H           10.07380239973974        1.41525804245141        0.37217549239684
H            7.44497221529098       -3.69007745783218        1.21390858900085
H            5.79712790387272       -3.06465182164696        1.46689540645668
H            6.32099779455974       -3.58201444210181       -0.16280389608279
H            4.59928281434405       -1.97706476211496       -0.27029071795705
H           -0.78280611705449       -1.68159343644414       -0.94932419342426
H            0.09443689044413       -2.01540996647907        0.55408551440398
H            0.89167974953984       -2.24446468643667       -1.01514956840187
H           -4.83209387980291        3.10616752334119       -0.72032394784687
H           -5.06838333883988        2.77288232803992        2.30364856668481
H           -5.91921902678425        1.78692186770077        1.11146131822383
H           -6.25787692957794        3.51262287482545        1.23515961317450
H           -3.14757507900312        4.37226798250737        1.48110380062727
H           -3.14481966353790        4.79231083563257       -0.23692373672992
H           -4.54633417967312        5.16982934177682        0.75623729934030
H           -1.87499208214014        1.91823481875178        3.37388721085187
