25
 energy: -41.930376831160 gnorm: 0.005887547385 xtb: 6.6.1 (8d0f1dd)
C            5.91086506978586        0.63257785881351       -0.67411710628636
N            4.80971894264564       -0.04625663510309       -0.17711651189205
C            3.90054186562660       -0.60378305566699        0.26617104037132
N            1.41538781811141       -1.04015954329099        1.26905100510104
C            0.51381328669368       -0.23703951025822        0.86062523913444
C           -0.23710348308970        0.63519736892084        0.43150972523115
C           -1.21450131081045        1.47786115254599       -0.00064837595696
O           -1.30392703252521        2.53172465373579       -0.52450031554313
N           -2.63842022419513        0.75996715324474        0.29371817055441
C           -3.77802702162632        1.63100089457221        0.46214785181522
C           -2.69311810901384       -0.49512846472540        0.29223863337964
O           -3.48721387118602       -1.51399907399875        0.45037256087407
N           -1.99308367204708       -1.64563891938060        0.22149742408840
C           -1.60835773908702       -2.25527257980038       -1.02175218421194
H            6.59889548668679        0.84659716150748        0.14448587081472
H            6.41032900999897        0.01628476413403       -1.42252295871576
H            5.57758733340266        1.56681893515757       -1.12882997172540
H            2.42661527465565       -0.91936569279133        0.93702158830788
H           -3.86412714049425        1.91473916607009        1.51172439939935
H           -3.58723906111789        2.52729648371575       -0.13070062150530
H           -4.69554072349204        1.14506726764253        0.13705086056457
H           -0.57453220209258       -1.96064583666345       -1.20131319796067
H           -2.22694471762232       -1.95344281631457       -1.86899386024478
H           -1.65704348709704       -3.33489001330965       -0.89050750347741
H            1.15585722185950       -1.86127217705120        1.79455985517494
