  25
        -42.13238727
 C          3.2513801252        1.1141207537        0.0176946666
 N          2.2597305280        0.0765944176       -0.0008615574
 C          2.4777410359       -1.2598966298       -0.0075966016
 N          1.3680594313       -1.9633682411       -0.0072448982
 C          0.3667472270       -1.0570564366        0.0010022659
 C          0.9082145699        0.2392543176        0.0059202918
 C          0.0742840532        1.4166283729       -0.0025608023
 O          0.4651392738        2.5619538954       -0.0156691216
 N         -1.2806134081        1.0840702253        0.0021017819
 C         -2.2430855255        2.1712264230       -0.0022575949
 C         -1.8374411806       -0.1893948902        0.0046915055
 O         -3.0294762177       -0.3519883529        0.0075782555
 N         -0.9596122010       -1.2790737332        0.0025171227
 C         -1.4886745832       -2.6211768981       -0.0023371358
 H          3.7547030765        1.1384850751        0.9867038156
 H          3.9976690856        0.9334977924       -0.7564445156
 H          2.7669715483        2.0756989476       -0.1527000404
 H          3.4580776241       -1.6953286357       -0.0140566449
 H         -1.6992205316        3.1134661273        0.0058501878
 H         -2.8749307012        2.1052760728       -0.8899437026
 H         -2.8904881330        2.0973338286        0.8733691147
 H         -1.1321588413       -3.1605098011        0.8760521356
 H         -1.1480903901       -3.1482575649       -0.8944622664
 H         -2.5759981014       -2.5650818124        0.0073311276
 H          1.7826279971       -4.8251250025       -0.0382637819
