  25
        -42.18818858
 C          3.2381009706        1.1208584962       -0.0181605547
 N          2.2614745457        0.0655481021        0.0025830519
 C          2.5318724352       -1.2540937688        0.0148223826
 N          1.3746933226       -1.9552631762        0.0245066380
 C          0.3424668107       -1.0721246410        0.0188996074
 C          0.8901089979        0.2166283595        0.0073806093
 C          0.0499083222        1.3245196532       -0.0000894103
 O          0.5104960555        2.5881230034       -0.0516868767
 N         -1.3084605614        1.0974298004        0.0311206627
 C         -2.1949503825        2.1053236105        0.0727694241
 C         -1.8779863073       -0.2256416316       -0.0158708161
 O         -3.0695196905       -0.3713523506       -0.0497516505
 N         -0.9976932943       -1.2893120305       -0.0043216858
 C         -1.5312495516       -2.6393137164       -0.0056160416
 H          3.8637561667        1.0764356773        0.8744961523
 H          3.8764343606        1.0281888361       -0.8978955328
 H          2.7237656832        2.0778547430       -0.0469028154
 H          3.5126705459       -1.6799143742        0.0124912142
 H         -0.2314766058        3.1880909139       -0.2310497716
 H         -3.2259978899        1.8605933599       -0.0308994627
 H         -1.9091495962        3.1152293732        0.2838421535
 H         -1.1885385681       -3.1803819380        0.8766795822
 H         -1.2284770117       -3.1654959475       -0.9112591931
 H         -2.6173764781       -2.5694024828        0.0177162999
 H          1.3045768048       -2.9616082392        0.0306919749
