25
 energy: 104.610794791385 xtb: 6.6.1 (8d0f1dd)
C            3.32068063268424        1.19372817265630        0.04294509157806
N            2.37287590028787        0.10493541831874        0.04342233488726
C            2.71627579968328       -1.17965703416269        0.02287684264986
N            1.60950336542682       -1.94502975021908        0.06101356420078
C            0.46935653454820       -1.09974482742563        0.10879089163819
C            1.01547803215012        0.21979484923663        0.09288876168501
C            0.26672822365249        1.48621221289004        0.09846745611258
O            0.81516548979463        2.59644868968921        0.01590567733528
N           -1.03079535419094        1.24057929938565        0.20438665417452
C           -2.01533185606258        2.26271218843877        0.19189165843844
C           -3.71799917178374       -0.91489363052842       -1.41210474333719
O           -4.51166694517696       -0.15063366909797       -1.17015931986220
N           -0.75740850109875       -1.42539764602762        0.16099981771813
C           -1.31098504246605       -2.73637426983335        0.19506459647590
H            3.81863612283388        1.26817325528133        1.01192771550216
H            4.07586236206274        1.03105492610495       -0.72643850283702
H            2.77717099648247        2.12303890055826       -0.14527077626011
H            3.72215622886815       -1.55108169858960       -0.01637791556638
H           -1.59383905106865        3.27753714025931        0.23926826059808
H           -2.62956260951651        2.16638945551210       -0.71301875462833
H           -2.68129410525522        2.12039698311179        1.05151680951163
H           -0.80292820919101       -3.42471917063358        0.87936858223833
H           -1.29680796929611       -3.17107190144568       -0.80780189693483
H           -2.35455052306090       -2.62066437356758        0.49970285921505
H            1.58197780207324       -2.94908535239228        0.04682401790919
