25
 energy: 33.225521471217 xtb: 6.6.1 (8d0f1dd)
C            3.25931769486059        1.17907771799631        0.08424691048945
N            2.26912929133951        0.12725813006475        0.06268566256800
C            2.59124536165675       -1.20216922824861        0.10337682769146
N            1.41670433202466       -1.93546701398688        0.03536177327179
C            0.33373816476863       -1.08605042393383       -0.02897006568614
C            0.88257676309311        0.18946383502627       -0.01043788654222
C            0.02695791404567        1.33687884749070       -0.04359381768723
O            0.48901190158459        2.47591910948455        0.06928481782963
N           -1.37079036613305        1.00272976546085       -0.17520410395787
C           -2.19116869491130        2.18647060302618        0.04594502881931
C           -2.05221026294754       -0.20618878244635       -0.70765707078450
O           -3.22750052923888       -0.35624232616081       -0.95088570817822
N           -1.01639368188507       -1.33059752189469       -0.10852785542796
C           -1.44814969465075       -2.69236983616345        0.07257913163422
H            3.77262686722315        1.24549335705512        1.05207040146347
H            4.03386228073550        0.99832716610014       -0.67034086929999
H            2.75652978592652        2.12383384163493       -0.11685173815102
H            3.59056268273136       -1.57558971369394        0.03199843772876
H           -1.56805143802049        3.08023616388286        0.13143560609950
H           -2.83676179112500        2.29547524407683       -0.81031481119997
H           -2.79651153846257        2.08142569018903        0.94478606627610
H           -0.85708800775958       -3.20497366077928        0.85311205137707
H           -1.37525752719360       -3.26584748101971       -0.85053300823928
H           -2.49682751711713       -2.66441217999190        0.36313258259316
H            1.46014396519556       -2.93851482966403        0.05737919836435
