25
 energy: 5.445642130670 xtb: 6.6.1 (8d0f1dd)
C            3.25889122477002        1.18542697095176        0.07060863480779
N            2.29579795783826        0.12286614012320        0.04008371057061
C            2.60116216732368       -1.22805524205533        0.06948817933715
N            1.40697106884254       -1.92847537767374        0.02840534925167
C            0.34933497426783       -1.06989696891267       -0.02874532671263
C            0.89475914923982        0.20668220163081        0.00599824919470
C            0.06266527596038        1.33439275445600       -0.02547047711342
O            0.46502291157028        2.50228478212091        0.03972253484876
N           -1.35401687235714        0.99181497454148       -0.12561408624433
C           -2.20596516784097        2.16398756766060        0.00376397960009
C           -1.96927309981591       -0.22300520773785       -0.42046178529100
O           -3.15489666401353       -0.38345285344669       -0.58814421198063
N           -1.02048726844037       -1.30371800697780       -0.12843025117616
C           -1.46790842815432       -2.66836628036278        0.01329640907046
H            3.75534597807767        1.24146356819612        1.04677139412889
H            4.03193819294514        1.03154834781430       -0.69369984382821
H            2.72797888017172        2.11735357286810       -0.11095385765554
H            3.59656396655087       -1.62302833080393        0.02961356389187
H           -1.60739638264796        3.07558118507803        0.06499310426960
H           -2.82884838581026        2.20908744373081       -0.87615291532088
H           -2.83419374906411        2.07901177729761        0.88901835403207
H           -0.99189078943979       -3.19859248614948        0.85447141183427
H           -1.27705618959901       -3.22779161683507       -0.89908100448644
H           -2.53969252548353       -2.61897630354822        0.17516812170296
H            1.41095185220880       -2.93448162549147        0.03581400013434
