25
 energy: 105.254370772252 xtb: 6.6.1 (8d0f1dd)
C            3.28829586401116        1.17972191290399        0.04600327246103
N            2.31947754034552        0.10628856279179        0.03361422692834
C            2.66507009130092       -1.17071841693593        0.02208258664052
N            1.56819214420428       -1.94399271232540        0.04416711270078
C            0.41749478022899       -1.10720411585224        0.09757664177766
C            0.96027982063209        0.21351708705039        0.08784798049883
C            0.18084123438344        1.45486724943012        0.09088092432950
O            0.73289491626181        2.56515597242297        0.04810889727054
N           -1.13125589627539        1.20779213429456        0.10455291949951
C           -2.06623393206296        2.26797993663586        0.18971146858129
C           -3.18849753821992       -0.65884678825989       -1.60317307759493
O           -4.15983269318606       -0.16927056669261       -1.32945110094691
N           -0.79526976208387       -1.45061166964917        0.23775970155781
C           -1.32038734050903       -2.76478093395854        0.21327435167271
H            3.78513574977073        1.24216203884286        1.01727225413764
H            4.05082469438243        1.01382891531961       -0.72051586778359
H            2.76206840897902        2.11764214346361       -0.13558509438395
H            3.67992045844032       -1.53163186300511        0.00065022746296
H           -1.55481133718380        3.22477453327308        0.26914899054033
H           -2.72227032115864        2.26825095045023       -0.68782721205557
H           -2.69308774410215        2.09709462994293        1.06937817211857
H           -0.70562762298139       -3.45243033472580        0.79232733758884
H           -1.41536889153386       -3.15411481467621       -0.80495748676300
H           -2.28588707376995       -2.69686819406014        0.69247320152814
H            1.58819929490919       -2.95094361564506        0.05211533056122
