25
 energy: -3.414710000832 xtb: 6.6.1 (8d0f1dd)
C            3.24898981261929        1.17991410477444        0.07738518684247
N            2.30198587197264        0.10967716889460        0.03795943551808
C            2.60262746483434       -1.23731467919535        0.04072052819452
N            1.41215554688349       -1.93312917123530        0.02201020103980
C            0.37080804615545       -1.06378716066329        0.01214196313378
C            0.90778365897528        0.21734302213835        0.03235444620387
C            0.09484265024137        1.35905124240911        0.01476343247497
O            0.48573580607825        2.53276574819028        0.04394553819384
N           -1.30821371846434        1.01989355455266       -0.06620711221961
C           -2.21123447817581        2.15794519017583       -0.02045366527755
C           -1.89698853561572       -0.21053992741066       -0.22876057227465
O           -3.09167334258551       -0.38358392749927       -0.33085846676258
N           -0.98581423798055       -1.29938594894491       -0.05946328532144
C           -1.47203223447554       -2.65631472632067       -0.01775530089417
H            3.73767677529201        1.23297413476961        1.05617843629742
H            4.01797155123813        1.03901956354492       -0.68942694183993
H            2.71017204015308        2.10853062637214       -0.10124345935932
H            3.58848132248115       -1.64483535786269        0.02888509004597
H           -1.63522289832682        3.08219117797845        0.02166675648442
H           -2.82232197528947        2.15059492999238       -0.91559541069955
H           -2.85735580755271        2.07985335705825        0.85282912937348
H           -1.08312651111251       -3.20370428823483        0.84932892260850
H           -1.20698200406484       -3.19664481639705       -0.92510714147152
H           -2.55355750638726       -2.58742190765653        0.05000312199836
H            1.38607220965353       -2.93795755373751        0.01601419049140
