72
 energy: -99.347583467951 gnorm: 0.009346932082 xtb: 6.6.1 (8d0f1dd)
N           -1.92631732050601        2.76448837417945        2.27870608133666
C           -1.86535668901311        2.00309918866953        1.28866666353513
C           -2.97341903951763        1.84080259637953        0.27935877189513
C           -3.56075837688627        0.44867702663378        0.40294959157972
C           -4.57849447846005        0.03170770583223       -0.61866795747225
C           -4.97297924146138       -1.40578020374432       -0.55080440397577
O           -5.75169171385408       -1.95921508258412       -1.49004330912056
C           -6.22591481590198       -1.18654965342818       -2.56736217862443
C           -4.57954565937682       -2.22789503271280        0.50869496315262
O           -5.05077761127331       -3.49627518489791        0.46760638272504
C           -4.72175447662498       -4.38132913763391        1.51466023026132
C           -3.73781122338220       -1.71370142629791        1.49411907820200
C           -3.22961321399478       -0.40613709277030        1.40419413014780
C           -2.31355089053269        2.00753313647334       -1.11787744955434
C           -1.42518921887485        0.82770181708427       -1.55011348150077
C           -0.05711712696361        0.88264828086977       -0.96743175962255
N            0.62748043049270       -0.15811825305488       -0.50651011420627
C            2.01726546258999        0.08807883017719       -0.13118202618935
C            2.95045983640281       -0.17235710057126       -1.32373239193261
C            4.38525128419199        0.00723648413162       -0.91186593212472
C            5.01355118902628        1.23529251852503       -1.03661563500119
C            6.33018870479757        1.40280991005351       -0.63538367529923
C            7.04482516768370        0.34292857497039       -0.09586840584930
O            8.32249640892237        0.38927134983794        0.32497654620575
C            9.03740372306547        1.59903621275824        0.22167463592023
C            6.40742090238870       -0.92185093934445        0.03764370130224
O            7.17386388690430       -1.89777359878695        0.56403887685047
C            6.63742426096247       -3.19079428556846        0.71146599095717
C            5.09012490579963       -1.06401589887148       -0.36829777431020
C            0.20104303253779       -1.40747984055792       -0.38964054399593
C           -4.11036980727968        2.89645188428503        0.44766765090630
C           -4.86526119699452        2.70188973381795        1.76092450623586
C           -3.61259648144090        4.33634823844080        0.35484064324794
H           -5.49142438571689        0.62917068117958       -0.44637626183198
H           -6.83128012217051       -0.34288016786125       -2.22387044310935
H           -6.84457649784323       -1.85762919694106       -3.15998635245063
H           -5.40582438793812       -0.81396687046924       -3.18982131588364
H           -5.09119365864239       -4.02007374006397        2.47872306990406
H           -5.21757656086258       -5.31799884666664        1.26753062122284
H           -3.64191482777127       -4.54962944371634        1.57529085581140
H           -3.44374303680933       -2.32415153545574        2.33025817102219
H           -2.54540328181815       -0.09014908550292        2.17583420310628
H           -3.10255035969211        2.14800914189283       -1.85757500410942
H           -1.71267650662395        2.91715946563692       -1.11411046295570
H           -1.91065450960345       -0.11355686798454       -1.29674692857570
H           -1.33445008452530        0.87032056630535       -2.64352138086678
H           -0.97906758108637        1.40092000808816        1.03170250792987
H            0.47117627352241        1.81920058077633       -1.03412404428402
H            2.28731161574857       -0.57246654974147        0.69451196351510
H            2.12991801073460        1.12132974089960        0.20219349740563
H            2.70354891503729        0.52010613056828       -2.13021298912074
H            2.78824555237562       -1.19004556600693       -1.68347001717092
H            4.48264919732980        2.07379556847714       -1.46089925653789
H            6.79498507549212        2.36789164665197       -0.75288103313463
H            8.56585326043701        2.39452587412593        0.80662214726663
H            9.13401088165109        1.91892854383649       -0.82023549105593
H           10.02515265418446        1.38967363715618        0.62790075180796
H            7.44175397715683       -3.79523379722816        1.12620579244859
H            5.78839192728244       -3.19627057131088        1.40270521389984
H            6.32930259017063       -3.61024603780881       -0.25129286304394
H            4.59909553023009       -2.02033025886910       -0.27843138978425
H           -0.78742143443073       -1.68975215871076       -0.68625093840804
H           -4.24665991313509        0.28823139185038       -1.62273090824603
H            0.85357230481762       -2.14502096528564        0.02920783384548
H           -4.80937104004414        2.73711391983394       -0.38235488307999
H           -4.20421555543806        2.90491990071588        2.59699853504921
H           -5.24723156782119        1.68833530321150        1.85888114084560
H           -5.70381856555623        3.39202154386460        1.80660111223726
H           -2.89208860814669        4.53880542950364        1.14071416353094
H           -3.16134024284637        4.54838862208817       -0.61061257110871
H           -4.45449368126567        5.01172479472411        0.48375789421634
H           -1.10975637281798        2.81623955845747        2.88033849660662
