  25
        -42.09407293
 C          3.0619992153        1.5452954416        0.1045000135
 N          2.2899699863        0.3838632454        0.0751342888
 C          2.5789922347       -2.1870582847       -0.0919964795
 N          1.2940909030       -2.1433287549       -0.0540550727
 C          0.4432484136       -1.0431578602       -0.0149595358
 C          1.0073721771        0.2484607301        0.0102119533
 C          0.0566242755        1.4150415365       -0.0272562648
 O          0.4474815500        2.5575701425       -0.0688430789
 N         -1.2721224253        1.0855423479       -0.0067578100
 C         -2.2540564175        2.1641076653       -0.0355111075
 C         -1.8107286191       -0.1869006625        0.0259797582
 O         -2.9940794282       -0.3815792920        0.0629478408
 N         -0.8962061015       -1.2514054271        0.0035457202
 C         -1.4626976141       -2.5883896436        0.0108908923
 H          2.4516273209        2.4251300948        0.3363814203
 H          3.8590328384        1.4294449815        0.8436044057
 H          3.5342751336        1.7055125545       -0.8708536022
 H          3.1926810607       -1.2896054661       -0.1126733173
 H         -1.7275174745        3.1147075826       -0.0200492804
 H         -2.8592803214        2.0830269803       -0.9384524365
 H         -2.9124902797        2.0781047992        0.8283477081
 H         -1.1498600094       -3.1427085215        0.8975885552
 H         -1.2058617725       -3.1306461051       -0.9007572116
 H         -2.5476057618       -2.4748561281        0.0459487106
 H          0.8014560833       -3.0451968494       -0.0476282000
