25
 energy: -42.486003541545 xtb: 6.6.1 (8d0f1dd)
C            3.42840328107056        0.97134020049120        0.16726748093231
N            2.40823962079986       -0.03494729552560        0.01181998930696
C            2.70911975094286       -1.32082861700780       -0.10795568310927
N            1.56720768134500       -2.05209131671145       -0.15495445419107
C            0.51390346649445       -1.17981192721151       -0.04455248317610
C            1.04161564055315        0.09813342395368        0.05429557913745
C            0.11660590912652        1.27024026680150        0.23155534655523
O            0.57196448244913        2.37948315781568        0.47976841234958
N           -1.20526820717334        0.98554946571057        0.15598611733507
C           -3.07313102316978        2.97542758098584       -0.41378252264866
C           -1.73712629861669       -0.20925198799338        0.22019126055320
O           -2.87564941252853       -0.54097973057995        0.43821972794895
N           -0.78358572028397       -1.41337638867050        0.02898733767565
C           -1.25277614327249       -2.76825576893618        0.01092061560116
H            3.96736624544220        0.79012740929570        1.10286955052035
H            4.13723666116697        0.88412448001038       -0.65711111770041
H            3.00329931208462        1.96251642763439        0.20096655509905
H            3.67586863678364       -1.68686680219430       -0.34142070050111
H           -2.35912084589946        3.74520268007891       -0.41051861814854
H           -3.50262022265385        2.68832434438238       -1.33657916192293
H           -3.59230783696995        2.74815799608731        0.46899998347478
H           -0.85411535186352       -3.32088173557113        0.87019412810649
H           -0.88972058833281       -3.22753042327228       -0.90676132651790
H           -2.34423287417056       -2.78500734193389        0.01953498899395
H            1.53192163943600       -3.05158027007325       -0.22274353835193
