  72
        -99.39625957
 N         -0.7574926003        2.9708772364        1.4705051791
 C         -1.2757432632        1.7505721382        0.9224583397
 C         -2.7087399001        1.7938719181        0.2921081560
 C         -3.3798979834        0.4307440475        0.3141271270
 C         -4.2743962643        0.0698141868       -0.6972692726
 C         -4.9460885568       -1.1421454279       -0.6916165764
 O         -5.8070412477       -1.5605355337       -1.6400216619
 C         -6.0915672980       -0.7298159834       -2.7405293795
 C         -4.7478107203       -2.0508694935        0.3831021681
 O         -5.4371592995       -3.2027903436        0.3084215559
 C         -5.3182494434       -4.1445842030        1.3496571977
 C         -3.8870109828       -1.6793321718        1.4038770844
 C         -3.2210530640       -0.4631623168        1.3697163594
 C         -2.3617897478        2.2506666253       -1.1347869472
 C         -1.2046078643        1.3383219164       -1.5198760201
 C         -0.3304750354        1.3164068556       -0.2524178377
 N          0.3633038965        0.0960962302        0.0450145270
 C          1.7874717856        0.1301788289        0.1899775627
 C          2.5667020554        0.0352243038       -1.1462428051
 C          4.0379434064        0.0358493121       -0.8690964331
 C          4.7915618523        1.1963206169       -0.9766164426
 C          6.1430355377        1.1985812908       -0.6708856109
 C          6.7724778616        0.0387939716       -0.2376292632
 O          8.0696420906       -0.0750511065        0.0949050345
 C          8.9086122600        1.0534618264        0.0047739725
 C          6.0078828508       -1.1577468288       -0.1202695448
 O          6.6934526865       -2.2345476834        0.3069343149
 C          6.0221780661       -3.4616506709        0.4685848858
 C          4.6591991548       -1.1349326500       -0.4383695302
 C         -0.2288840128       -1.1749610382       -0.2616272107
 C         -3.7129300982        2.7952858033        0.9948172138
 C         -3.9520670405        2.4305935855        2.4609200985
 C         -3.3588492242        4.2095146550        0.8404828062
 H         -4.4669170054        0.7494590727       -1.5093795952
 H         -6.5480358426        0.2136166790       -2.4255546820
 H         -6.8025101594       -1.2861106821       -3.3481703366
 H         -5.1938351372       -0.5249189391       -3.3323689106
 H         -5.6538885928       -3.7304314202        2.3049981598
 H         -5.9653089727       -4.9732520809        1.0688414796
 H         -4.2896068016       -4.5046509730        1.4483343894
 H         -3.7281923540       -2.3327623038        2.2461864225
 H         -2.5794285735       -0.2334659375        2.2043330117
 H         -3.1874001397        2.2052633521       -1.8381937712
 H         -2.0203233305        3.2867216108       -1.0982390771
 H         -1.5824605575        0.3448743601       -1.7515539644
 H         -0.6518415795        1.7071044059       -2.3821993919
 H         -1.2137881754        1.0130347574        1.7220422962
 H          0.4277653419        2.0992812636       -0.3342564135
 H          2.0892658959       -0.7075611263        0.8249534358
 H          2.0674047717        1.0555614127        0.6979876097
 H          2.2971425144        0.8811345581       -1.7793711911
 H          2.2802296080       -0.8862826125       -1.6549307383
 H          4.3263129849        2.1112113956       -1.3100557772
 H          6.7024220446        2.1142853125       -0.7713886870
 H          8.5735026661        1.8553568157        0.6695853783
 H          8.9654048908        1.4286868306       -1.0213356794
 H          9.8927019692        0.7112194029        0.3193158166
 H          6.7761788801       -4.1631758323        0.8200596402
 H          5.2235697754       -3.3853160046        1.2131178906
 H          5.6076291303       -3.8202347939       -0.4784018048
 H          4.0727172278       -2.0370574539       -0.3620705278
 H         -0.1127141310       -1.4564003996       -1.3160302874
 H         -1.2904323199       -1.1569227496       -0.0209650134
 H          0.2496456787       -1.9425181370        0.3458076056
 H         -4.6493401750        2.6314476617        0.4420746381
 H         -3.0350467015        2.4524390605        3.0408293119
 H         -4.3852677878        1.4390724668        2.5390912756
 H         -4.6485197379        3.1388620942        2.9009212938
 H         -0.6703548394        3.7196020927        0.7996350208
 H         -3.6513044273        4.7493049004       -0.0439400216
 H         -2.9915368721        4.7841073682        1.6703682675
 H         -1.2526611936        3.2946986487        2.2857319477
