25
 energy: 0.000000000000 xtb: 6.6.1 (8d0f1dd)
C            3.23720132972391        1.16630909158653        0.08434468864950
N            2.29877796055224        0.07527476373246        0.03981602671198
C            2.58028186251803       -1.21425391179017        0.03006175752192
N            1.43813944744728       -1.93419254010258        0.00098261751768
C            0.39035684826767       -1.05887462812143       -0.00790371763344
C            0.93510047688824        0.21347817468824        0.01709077332874
C            0.09450143016486        1.40504290868848       -0.00410946993748
O            0.49712746915594        2.54126690785742       -0.00342325656480
N           -1.25076628431515        1.06271869620815       -0.03085477937476
C           -2.21907191394203        2.15522079838987       -0.05001256521996
C           -1.81739470187490       -0.20012724136556       -0.04692818139228
O           -2.99983858926755       -0.37846413507442       -0.07008877579474
N           -0.92618577614240       -1.30210203518959       -0.03682761236648
C           -1.46982251276835       -2.64643077634382       -0.06029819901142
H            3.71247229913541        1.21471443890471        1.06488839270555
H            4.00791460421487        1.03430799217987       -0.67357688121503
H            2.69909982127087        2.09770098766290       -0.09130154035862
H            3.56654087521359       -1.63682977417947        0.04233139674524
H           -1.67107945562430        3.09322822573871       -0.02552706696334
H           -2.82428927394145        2.09428605349656       -0.95318074103337
H           -2.87644002486466        2.07745706351925        0.81450059976605
H           -1.17061985538665       -3.19584861009707        0.83242224714061
H           -1.14560246782873       -3.17511580834413       -0.95688266944647
H           -2.55549768731684       -2.55659960601237       -0.07459039105944
H            1.38130842369251       -2.94313824728853       -0.01389874052104
25
 energy: -6.185196520707 xtb: 6.6.1 (8d0f1dd)
C            3.24206053910223        1.17871452394283        0.08678915795946
N            2.30667902871445        0.10577010681300        0.03851433993362
C            2.60741620673345       -1.23553403903413        0.04097401696006
N            1.42713717132810       -1.93603697161672        0.00854883778179
C            0.40247662163296       -1.06191825502890       -0.00891989404023
C            0.92154129526548        0.22617433681674        0.01652537870235
C            0.11734370798929        1.38611613308967       -0.00424326737497
O            0.49503410928963        2.56084582363567       -0.00529345156676
N           -1.26588246398973        1.04825595649800       -0.02966073713787
C           -2.21593648793834        2.14896570721920       -0.05078842344113
C           -1.81291183874813       -0.19896958257420       -0.04679924142012
O           -3.01247107232193       -0.38467815910943       -0.06826407194099
N           -0.93530017860241       -1.30767431711139       -0.05173082224976
C           -1.47847432618062       -2.64870679004766       -0.07040732264956
H            3.71998527362805        1.22827542292051        1.06927489818171
H            4.01283901589498        1.04294105919708       -0.67447791580131
H            2.69832552749857        2.10467529750588       -0.09282457228998
H            3.58539285059753       -1.64448333623731        0.05343023390015
H           -1.65598984551683        3.08231231811298       -0.02538456318942
H           -2.82007397568613        2.09695400121265       -0.95632441640006
H           -2.87489724696222        2.08050457592811        0.81396972126560
H           -1.14052388363494       -3.21335128378244        0.80003223549398
H           -1.21122842948495       -3.20478177880322       -0.97498394652879
H           -2.56201792395843       -2.54417449467527       -0.03407987101893
H            1.37661414589706       -2.93982256119410       -0.00217156534149
25
 energy: -5.829194655964 xtb: 6.6.1 (8d0f1dd)
C            3.24442608695451        1.18532628702171        0.08805878717358
N            2.31088039018517        0.10941061428860        0.04162986057004
C            2.61492925975630       -1.23312974971429        0.04911145634061
N            1.43331340916413       -1.93372035885960        0.01587314021864
C            0.40579424568088       -1.06292119744389       -0.01060056907562
C            0.92414078530719        0.22698198054183        0.01697153492455
C            0.11999988778687        1.38635617624620       -0.00397092971376
O            0.49568737111695        2.56217799138504       -0.00539082308276
N           -1.26408602043653        1.04540767397735       -0.02845317819110
C           -2.21257647118724        2.14816583603064       -0.05237893626917
C           -1.81067277783954       -0.20246053383521       -0.04800398941164
O           -3.01116718321043       -0.38599647642941       -0.06392481332955
N           -0.93293813074179       -1.31510778968350       -0.06639728162109
C           -1.48655992671758       -2.65610125082423       -0.08002701134060
H            3.72536315202384        1.23725034858752        1.06953861191742
H            4.01390767862392        1.05159038342093       -0.67538306147964
H            2.69868130027695        2.11068598983544       -0.09089418913085
H            3.59405388627351       -1.64279390969099        0.06319244471744
H           -1.64958290897617        3.07984307806932       -0.02746415943681
H           -2.81513637421533        2.09861428340342       -0.95923282943008
H           -2.87420099919264        2.08583913720984        0.81083165914399
H           -1.11420533560170       -3.23301380303973        0.76717231598297
H           -1.27942983543496       -3.23256147072337       -0.99150982782494
H           -2.56675078321612       -2.53747359664592        0.00547432029560
H            1.38071733964749       -2.93719302630678        0.01064609961968
25
 energy: -5.223792852300 xtb: 6.6.1 (8d0f1dd)
C            3.24615034292608        1.19223551994187        0.08965709992343
N            2.31437298548148        0.11339453077564        0.04471770425285
C            2.62166882433774       -1.22976222365582        0.05752217166936
N            1.43960987378068       -1.93108121258994        0.02236757050381
C            0.40892024662260       -1.06432657666066       -0.01272634393610
C            0.92623364050176        0.22748900035720        0.01719449258482
C            0.12266523581515        1.38609911226992       -0.00346259246368
O            0.49661856971892        2.56268734968994       -0.00413082810251
N           -1.26200627661126        1.04264449085803       -0.02769389210421
C           -2.20841589190810        2.14785130995356       -0.05436658991735
C           -1.80750222940318       -0.20590443192978       -0.05029035263778
O           -3.00850882299430       -0.38768653194112       -0.05785787267206
N           -0.93058448048683       -1.32256325145675       -0.08075292514626
C           -1.49529574427525       -2.66359632966780       -0.08850745135715
H            3.73067707018332        1.24711735744476        1.06965920961402
H            4.01443823820524        1.06130507040669       -0.67580251771572
H            2.69847450452534        2.11696092334074       -0.08824015198075
H            3.60188966045618       -1.63902425407448        0.07187905074179
H           -1.64213983899595        3.07775100888698       -0.02928588132600
H           -2.80812861318605        2.10058143469462       -0.96324479817146
H           -2.87383201264290        2.09174801363992        0.80635933924550
H           -1.08749565556021       -3.25123772987526        0.73476699490222
H           -1.34757605953923       -3.25714893022198       -1.00586000705979
H           -2.57070831525794       -2.53135516372549        0.04454169052469
H            1.38677757011712       -2.93427607739813        0.02254743971188
25
 energy: -4.357239692761 xtb: 6.6.1 (8d0f1dd)
C            3.24797296942377        1.19910495058423        0.09086429177409
N            2.31738828745022        0.11829961097449        0.04835078923567
C            2.62807540816690       -1.22511625236679        0.06837849223174
N            1.44610948634550       -1.92774935556363        0.02912441154797
C            0.41203422620045       -1.06557332454241       -0.01449546585126
C            0.92786729698534        0.22841575972781        0.01764720742317
C            0.12499651578176        1.38589862986162       -0.00342189865401
O            0.49703466500403        2.56358690105211       -0.00418877050101
N           -1.26004701667361        1.03978831322503       -0.02747504897414
C           -2.20440151075874        2.14714810420717       -0.05604409613173
C           -1.80413276906352       -0.20933939142315       -0.05274620576238
O           -3.00545352710775       -0.38942676375646       -0.05321606714012
N           -0.92825243280346       -1.32971484949151       -0.09516096221200
C           -1.50425446516238       -2.67097194003794       -0.09761895619488
H            3.73481137243637        1.25654272252834        1.06986555173671
H            4.01592394058866        1.06927643429247       -0.67558906072835
H            2.69898987326997        2.12311689031925       -0.08736991853297
H            3.60964602189926       -1.63250907743743        0.08259074420669
H           -1.63461375066220        3.07516913201309       -0.03067864134601
H           -2.80240834343995        2.10243757930906       -0.96625765375628
H           -2.87198520162959        2.09579380665283        0.80323787599144
H           -1.05985272498965       -3.26882788614295        0.69970534058515
H           -1.41776059424160       -3.27995757458284       -1.01915758401244
H           -2.57253858467687       -2.52407053980917        0.08453303765477
H            1.39422898826722       -2.93072592638532        0.03359803672821
25
 energy: -3.256293017009 xtb: 6.6.1 (8d0f1dd)
C            3.24963155979513        1.20597448987020        0.09184068044227
N            2.32005181886695        0.12332130764550        0.05244644805477
C            2.63381844705669       -1.22019921366066        0.08032624532641
N            1.45236882581737       -1.92459563117177        0.03638500414378
C            0.41475689395425       -1.06712165455295       -0.01588145016459
C            0.92915323653199        0.22918167596481        0.01844938583772
C            0.12717996584746        1.38563522302678       -0.00317224511166
O            0.49746387369315        2.56439244448222       -0.00414969466561
N           -1.25811588425697        1.03704199334895       -0.02721222413786
C           -2.20034945897401        2.14664861430745       -0.05742010526073
C           -1.80105217513845       -0.21264884979055       -0.05536107190696
O           -3.00269100256989       -0.39052812547080       -0.04929371578677
N           -0.92662115296357       -1.33683386660993       -0.10895530644002
C           -1.51369868131887       -2.67886579938938       -0.10701321682658
H            3.73899384705155        1.26626150757198        1.06964278422274
H            4.01702250753924        1.07698867386495       -0.67580886309787
H            2.69948117217591        2.12926530830695       -0.08697767812035
H            3.61683264042595       -1.62547113426558        0.09355787637346
H           -1.62712362265541        3.07283735592185       -0.03151046095336
H           -2.79655710799324        2.10468446407501       -0.96901576231090
H           -2.87002512959092        2.09973652761907        0.80044268465584
H           -1.03424784993165       -3.28698213189786        0.66261515719080
H           -1.48738222339500       -3.30087708161469       -1.03124963973149
H           -2.57286920007359       -2.52103803239511        0.12381948753269
H            1.40215807775215       -2.92753547477430        0.04491693518155
25
 energy: -1.934562016954 xtb: 6.6.1 (8d0f1dd)
C            3.25108957935249        1.21274641333316        0.09304565891047
N            2.32240187439168        0.12827087509477        0.05680960673599
C            2.63885109372197       -1.21526736701896        0.09270988560460
N            1.45832531111053       -1.92180822745241        0.04352184849765
C            0.41701516693495       -1.06906043147169       -0.01730876186803
C            0.93010069040668        0.22969903705023        0.01920440869441
C            0.12937765858494        1.38539517254811       -0.00322885812314
O            0.49783848435410        2.56517966684821       -0.00450534157969
N           -1.25618019494747        1.03439438686144       -0.02704042534703
C           -2.19623805622880        2.14652723578825       -0.05862461133752
C           -1.79824653945449       -0.21586106569500       -0.05801558600087
O           -3.00012022741978       -0.39139511999324       -0.04564341767362
N           -0.92578994761680       -1.34394626630109       -0.12218214100741
C           -1.52384105722236       -2.68724625504913       -0.11592650768819
H            3.74290401788540        1.27585832930361        1.06963579714002
H            4.01787670829102        1.08462833641080       -0.67576458707850
H            2.70007383332001        2.13544147140415       -0.08654069223059
H            3.62338369208578       -1.61840452737564        0.10428978693684
H           -1.61975450809296        3.07095896475288       -0.03177870247528
H           -2.79074072957196        2.10751569864348       -0.97150049812871
H           -2.86778154805817        2.10358471231318        0.79793010309184
H           -1.01041709241178       -3.30569906918140        0.62389969406565
H           -1.55654260136504       -3.32047667777040       -1.04114062884048
H           -2.57172415139691       -2.52164881284886        0.16416547174499
H            1.41056763395362       -2.92487404078042        0.05584872493857
25
 energy: -0.340719259307 xtb: 6.6.1 (8d0f1dd)
C            3.25242659012272        1.21956954590703        0.09443467203981
N            2.32427625243075        0.13359429051957        0.06133769608646
C            2.64327424838998       -1.20962515199283        0.10595047057910
N            1.46409390909890       -1.91885155623240        0.04967454771632
C            0.41875367613387       -1.07121677876599       -0.01932743587551
C            0.93055984022386        0.23024751363188        0.01984815691131
C            0.13148031203350        1.38561801023975       -0.00325736103580
O            0.49783307493926        2.56646442208375       -0.00326281028057
N           -1.25402740101965        1.03232874271798       -0.02725788090879
C           -2.19179032719884        2.14704905581085       -0.06047589228153
C           -1.79564188525278       -0.21885068614767       -0.06041304580415
O           -2.99774343490544       -0.39190677349716       -0.04122358246663
N           -0.92578538492920       -1.35116217314947       -0.13486957506516
C           -1.53480824332491       -2.69645248208926       -0.12446885363698
H            3.74741802547531        1.28428313034705        1.06953532380007
H            4.01789145792037        1.09276157970431       -0.67622747194486
H            2.70091598502147        2.14206410733027       -0.08488017561858
H            3.62939861660069       -1.61027639439916        0.11614152962081
H           -1.61143222135658        3.06928453985191       -0.03452225210493
H           -2.78545519753632        2.10995361136707       -0.97403959151362
H           -2.86413248079122        2.10918089909175        0.79562484635967
H           -0.98696429215272       -3.32422586385809        0.58410443711956
H           -1.62721418163582       -3.33931652688802       -1.05035166194676
H           -2.56900214255448       -2.52328516684848        0.20619862210900
H            1.41963732103441       -2.92206724328780        0.06554160336144
25
 energy: 1.471922672556 xtb: 6.6.1 (8d0f1dd)
C            3.25338071373064        1.22638202031409        0.09510442678008
N            2.32569803449659        0.13876843638296        0.06668346895863
C            2.64659787313573       -1.20395081633901        0.11974154183326
N            1.46947413772086       -1.91634375847100        0.05649737507096
C            0.42004082241635       -1.07419263583807       -0.02078718095701
C            0.93059735949933        0.23031622963377        0.02190151901699
C            0.13408468761459        1.38606283521096       -0.00310332423147
O            0.49878453396912        2.56779732636888       -0.00260451522134
N           -1.25139131564769        1.03184602121996       -0.02803642133363
C           -2.18743386472658        2.14833620034204       -0.06173916142395
C           -1.79284684050669       -0.22075096225047       -0.06304008613263
O           -2.99513873228732       -0.39126446522323       -0.03734281189284
N           -0.92633199377269       -1.35785926461280       -0.14740344693121
C           -1.54658650855038       -2.70520806848344       -0.13409041219854
H            3.75175449068810        1.29369437208910        1.06850944624075
H            4.01743326395198        1.10054031123660       -0.67750661243234
H            2.70158110398114        2.14861461962446       -0.08467177825075
H            3.63448325482766       -1.60174309528905        0.12737228679827
H           -1.60384855472627        3.06864209396733       -0.03565660978145
H           -2.77974684081964        2.11341350000017       -0.97630961615016
H           -2.86089880816293        2.11414622178220        0.79358286973107
H           -0.96846766457120       -3.34216348541578        0.54286506258270
H           -1.69819602893096       -3.35553223667402       -1.05892919713857
H           -2.56470703476179       -2.52581813448947        0.24454669720567
H            1.42899997467349       -2.91974837636405        0.07565644542010
25
 energy: 3.506442579049 xtb: 6.6.1 (8d0f1dd)
C            3.25410296438459        1.23307887243643        0.09540152009557
N            2.32658810127223        0.14396243929987        0.07314708227531
C            2.64881847331904       -1.19801290220340        0.13418062317877
N            1.47404802473492       -1.91389399471343        0.06256272811212
C            0.42002711638303       -1.07751723702418       -0.02174256416790
C            0.93035342402285        0.22940924992170        0.02386459149282
C            0.13670964027807        1.38646420050456       -0.00255770841927
O            0.50024177012450        2.56898122573368       -0.00041113080151
N           -1.24894167826856        1.03181226875685       -0.02993572024445
C           -2.18307211978748        2.15023866086119       -0.06318476547896
C           -1.79049968684600       -0.22215101119126       -0.06597521866622
O           -2.99289320562322       -0.38968320927925       -0.03339284613105
N           -0.92779277868478       -1.36461804143098       -0.15965033482469
C           -1.55601239116120       -2.71585591797060       -0.14559639138486
H            3.75688485411647        1.30260343392956        1.06647475605075
H            4.01605755252715        1.10844511367030       -0.67999023067863
H            2.70202175986461        2.15519400590898       -0.08379904922059
H            3.63874672002732       -1.59234991142713        0.13929602452260
H           -1.59658250599265        3.06893141452030       -0.03818589969926
H           -2.77464433725158        2.11676022971319       -0.97827243334322
H           -2.85696796732246        2.11997905738076        0.79195244623659
H           -0.95205392690226       -3.36092062676073        0.49954550414567
H           -1.76964067431561       -3.37132913241824       -1.06734366484404
H           -2.55290988925358       -2.54167321751399        0.28180541881492
H            1.43803177920457       -2.91746124239686        0.08405427395007
25
 energy: 5.739617752738 xtb: 6.6.1 (8d0f1dd)
C            3.25469519718362        1.23960400071953        0.09530045444815
N            2.32720622624256        0.14902450105701        0.07966477024403
C            2.65020650182841       -1.19200367424520        0.14809672766159
N            1.47801044388999       -1.91125870762833        0.06947562324440
C            0.41959980921762       -1.08026914737476       -0.02262741495093
C            0.93015969259401        0.22908765048497        0.02106177101918
C            0.13938343147565        1.38806265619192       -0.00393410655783
O            0.50161236970408        2.57125223446451       -0.00021136239327
N           -1.24658862705121        1.03230877900763       -0.03289315837947
C           -2.17917359733910        2.15227211322514       -0.06361518853728
C           -1.78870137523397       -0.22256228617769       -0.06929437289189
O           -2.99086127914932       -0.38765135899034       -0.02946654168058
N           -0.92955383749674       -1.37064678771167       -0.17110604301623
C           -1.56689997389350       -2.72512440474905       -0.15538658196880
H            3.76123927814335        1.31214577678809        1.06422424119808
H            4.01497175386055        1.11548644614825       -0.68238431751694
H            2.70218055680268        2.16136742305825       -0.08412318244015
H            3.64191943440597       -1.58289925176888        0.15030237752400
H           -1.58974722246879        3.06926848532569       -0.03827067980361
H           -2.77003905521163        2.12078731843993       -0.97909115229963
H           -2.85333880246767        2.12430948593220        0.79142877838110
H           -0.94000447447828       -3.38073009074180        0.45394351368729
H           -1.83821579633218       -3.38699661260858       -1.07020813965433
H           -2.54056849483485       -2.55408114265382        0.31736601252061
H            1.44700035035395       -2.91506365288141        0.09390304770678
25
 energy: 8.205137342846 xtb: 6.6.1 (8d0f1dd)
C            3.25434057090795        1.24607208556326        0.09461984686422
N            2.32625319864127        0.15423062547067        0.08700476772917
C            2.64853229479049       -1.18562370813753        0.16110553175879
N            1.47988923851447       -1.90836440176235        0.07740578108379
C            0.41709966407811       -1.08214847142034       -0.02412914660997
C            0.92848735437594        0.22906855381845        0.01731045519624
C            0.13989617485757        1.38890618698813       -0.00676848385932
O            0.50347830405464        2.57136255330492       -0.00241130618194
N           -1.24585125269209        1.03264925299305       -0.03632924689667
C           -2.17580238047784        2.15461199427917       -0.06294008975024
C           -1.78972042588544       -0.22207143908637       -0.07318315821788
O           -2.99160144974155       -0.38509267106385       -0.02671850198545
N           -0.93299320212237       -1.37517348864874       -0.18317014796411
C           -1.57896701687493       -2.73312622678125       -0.16351068214793
H            3.76470455676598        1.32227792094000        1.06138999507778
H            4.01250329896808        1.12211783749692       -0.68589512924866
H            2.70200101562532        2.16776024928364       -0.08608862383076
H            3.64151442390024       -1.57285761872400        0.16114949106244
H           -1.58180444879275        3.06879435320674       -0.03504788623027
H           -2.76541663539065        2.12679150855957       -0.97909655713819
H           -2.85029545122187        2.12788419863722        0.79185331078412
H           -0.92755718305068       -3.39587098799181        0.40887523206616
H           -1.90335416217758       -3.40587397602999       -1.06748073571874
H           -2.52777553390359       -2.56054522874838        0.35214280757035
H            1.45586609064388       -2.91246304965491        0.10583211893924
25
 energy: 10.961124330301 xtb: 6.6.1 (8d0f1dd)
C            3.25372368022921        1.25237178966221        0.09241145842878
N            2.32429728702205        0.15930150028947        0.09580087449892
C            2.64396942142057       -1.17950042949899        0.17391991165822
N            1.47972836551697       -1.90511961882636        0.08444423819113
C            0.41335338045126       -1.08282268713228       -0.02541964526035
C            0.92585698420102        0.22968093837148        0.01454746818928
C            0.13903870714470        1.38992244364962       -0.00925958015959
O            0.50544994133589        2.57112728877405       -0.00341925234017
N           -1.24636946531754        1.03319091663601       -0.04002054727240
C           -2.17310042549902        2.15751310089740       -0.06308587643557
C           -1.79242200527189       -0.22144430895624       -0.07762848971261
O           -2.99436196680964       -0.38234477021296       -0.02888728298156
N           -0.93743829711763       -1.37801327121582       -0.19675853394176
C           -1.58824359417158       -2.74263678156502       -0.17378086659509
H            3.76969499914399        1.33257982616380        1.05626545596432
H            4.00897032700304        1.12508019689904       -0.69082823777025
H            2.70270448028103        2.17464807603296       -0.09007465036978
H            3.63535553846645       -1.56774154599096        0.16685560560145
H           -1.57528661030039        3.06938886964186       -0.03164862541660
H           -2.76138727468743        2.13371786011362       -0.97972708631591
H           -2.84793417908003        2.13124460472719        0.79128723463338
H           -0.90973076689153       -3.40754569630537        0.36241774232927
H           -1.97013759822124       -3.42529132929077       -1.06453226562051
H           -2.50945312838288       -2.57222791097610        0.38475726745362
H            1.46500906204693       -2.90945205396368        0.11647340727868
25
 energy: 13.488977912780 xtb: 6.6.1 (8d0f1dd)
C            3.25239641010308        1.25559000292881        0.09191410661333
N            2.32249000345086        0.16086923345200        0.10501782339104
C            2.63978310366072       -1.17765342414478        0.18571351127662
N            1.47843279845437       -1.90290530431496        0.09023349402421
C            0.41028809365900       -1.08253879333293       -0.02540331140338
C            0.92364445946768        0.22940590732311        0.01533634382866
C            0.13689410811003        1.38941845093901       -0.01122092636781
O            0.50642357419360        2.56984541921924       -0.00557202787310
N           -1.24801498461802        1.03404563478351       -0.04312285578567
C           -2.17070532536300        2.16132844525766       -0.06552941627571
C           -1.79629341913919       -0.22019084675548       -0.07864429794315
O           -2.99803485244328       -0.38200610630972       -0.03103563207330
N           -0.94174932928285       -1.37484855953534       -0.19687282595482
C           -1.58960059959935       -2.74371685011580       -0.17793563676565
H            3.77370971891583        1.34121424562395        1.05246572630540
H            4.00385867073621        1.12329586705436       -0.69316528038689
H            2.70184906883731        2.17799289753584       -0.09077920179274
H            3.62780251828598       -1.57367654412844        0.15952833610347
H           -1.56933406400837        3.07152383220425       -0.03217831629834
H           -2.75757679500013        2.14012492647231       -0.98248106790199
H           -2.84593304181703        2.13558656308330        0.78814261236778
H           -0.88881275378644       -3.41368715322529        0.31880554532482
H           -2.03701336231441       -3.43344494257769       -1.06032495310741
H           -2.48911698825632       -2.58753696436633        0.41323344903330
H            1.47298667881409       -2.90706280905193        0.12566929971707
25
 energy: 12.839717052019 xtb: 6.6.1 (8d0f1dd)
C            3.24935048759287        1.25118735123823        0.09232297683847
N            2.32043710200546        0.15579905191659        0.11271294605394
C            2.63829932914746       -1.18401899303977        0.19818475890282
N            1.47387206704817       -1.90551622537301        0.08881725596278
C            0.40730446674079       -1.08426729738537       -0.02804193978282
C            0.92206686847285        0.22602661579484        0.01682870762041
C            0.13463398282812        1.38636007997150       -0.01117539561544
O            0.50536395321447        2.56623236887930       -0.00588940355465
N           -1.25031614184269        1.03425533468313       -0.04403805274416
C           -2.17070473677998        2.16371164239696       -0.06917497814687
C           -1.79920155331471       -0.22005962426314       -0.08134690137601
O           -3.00085782593986       -0.38310998783131       -0.03530753088155
N           -0.94668247396105       -1.37234356619879       -0.19865556779386
C           -1.59589412680479       -2.73997153760918       -0.17425333613201
H            3.77460346800161        1.34574636558817        1.04906472727669
H            4.00002082448512        1.11551789709130       -0.69313866589886
H            2.69825812580366        2.17288764403968       -0.09065748579538
H            3.62605963279123       -1.58119410469016        0.14603322939004
H           -1.57142755138470        3.07558999952796       -0.03483050286523
H           -2.75536378800050        2.14442776049670       -0.98715516215685
H           -2.84767250829385        2.13605446501182        0.78248425389444
H           -0.86805867634389       -3.41420410568938        0.27434968203414
H           -2.08030772265088       -3.40253205425023       -1.05318909182070
H           -2.47187424998637       -2.59769405013013        0.45610825121976
H            1.46464090749539       -2.90906462788614        0.12918147322939
25
 energy: 9.341413760428 xtb: 6.6.1 (8d0f1dd)
C            3.24701510597977        1.24490913334513        0.09567833408250
N            2.31806841557525        0.15044883291347        0.11594121766129
C            2.63732104660376       -1.18944372774097        0.21369220625838
N            1.47087525185728       -1.91080216667039        0.08702920643108
C            0.40745751638006       -1.08624746788434       -0.03220209661231
C            0.92186799510065        0.22262494557643        0.01550327159122
C            0.13313698470643        1.38335580032608       -0.01286618598500
O            0.50515613496385        2.56254695397709       -0.00727435610848
N           -1.25141488717135        1.03338378761103       -0.04404321952163
C           -2.17212910225322        2.16310253213984       -0.07305608093838
C           -1.79886169615749       -0.22157765560413       -0.08327275447779
O           -3.00012618947097       -0.38712444767877       -0.03668660272375
N           -0.94570808020967       -1.37033991788941       -0.20479042223092
C           -1.58778010172927       -2.73681345898428       -0.17323347636801
H            3.77088153879100        1.33593538901425        1.05306930071000
H            3.99773509611542        1.10981052851562       -0.69005710323302
H            2.69513204825353        2.16630910358620       -0.08624904461504
H            3.62539236969261       -1.58298852868147        0.12853492779060
H           -1.57182873661583        3.07441901981170       -0.04197940039167
H           -2.75589793769198        2.14257679938337       -0.99234979406995
H           -2.84827862114097        2.13764405413377        0.77985889006593
H           -0.83683495229403       -3.41271379317585        0.23539739008997
H           -2.05265160219117       -3.35650873361901       -1.05224869497250
H           -2.45236574638780       -2.61377338228541        0.47710219249545
H            1.45586854515282       -2.91451735468112        0.13175827240394
25
 energy: 21.499514114769 xtb: 6.6.1 (8d0f1dd)
C            3.25113549863512        1.24894330747296        0.09715445718025
N            2.32205401607626        0.15665425707876        0.11602816454759
C            2.64058457357786       -1.18058805817389        0.21518908235436
N            1.47634549603647       -1.90319331826354        0.09504960273370
C            0.41265804587125       -1.07755136054611       -0.02108772401700
C            0.92713652883918        0.23244576095944        0.01973315847459
C            0.13903352687396        1.39413716869138       -0.01039364611701
O            0.51109453544002        2.57332881033764       -0.00685419176489
N           -1.24474391595232        1.04361782442949       -0.04118168198254
C           -2.16975372172813        2.16975112888475       -0.07237637253750
C           -1.79288616986212       -0.21112082038499       -0.07449313001110
O           -2.99380696992578       -0.37602223589838       -0.02870393612466
N           -0.94083045133646       -1.36349826677646       -0.18735907601974
C           -1.58953721090653       -2.73629203041667       -0.17520840015279
H            3.77272760445042        1.33732116382802        1.05582674898027
H            4.00171940019485        1.11145708314412       -0.68786641802092
H            2.69913642594460        2.16972836430027       -0.08645427057851
H            3.62866590853219       -1.57219821784379        0.12947959735151
H           -1.57293882507000        3.08305422783306       -0.04087330619499
H           -2.75375344388102        2.14547086970451       -0.99181470237309
H           -2.84655830994982        2.14075736250380        0.77992944228344
H           -0.82661150870147       -3.41265488654718        0.19838509663062
H           -2.15490379985389       -3.47463854889681       -1.06215255441981
H           -2.44870209602475       -2.60293369345469        0.46816770412032
H            1.46494916769258       -2.90694710322163        0.13891026785247
