25
 energy: 0.000000000000 xtb: 6.6.1 (8d0f1dd)
C            3.23720163006194        1.16630919979326        0.08434469647475
N            2.29877817382611        0.07527477071623        0.03981603040599
C            2.58028210190900       -1.21425402444508        0.03006176031096
N            1.43813958087363       -1.93419271955128        0.00098261760884
C            0.39035688448383       -1.05887472636071       -0.00790371836672
C            0.93510056364412        0.21347819449412        0.01709077491437
C            0.09450143893243        1.40504303904423       -0.00410947031874
O            0.49712751527797        2.54126714362870       -0.00342325688240
N           -1.25076640035757        1.06271879480407       -0.03085478223738
C           -2.21907211982101        2.15522099834493       -0.05001256985998
C           -1.81739487048744       -0.20012725993278       -0.04692818574614
O           -2.99983886758376       -0.37846417018721       -0.07008878229737
N           -0.92618586207120       -1.30210215599479       -0.03682761578324
C           -1.46982264913417       -2.64643102187190       -0.06029820460571
H            3.71247264356769        1.21471455160235        1.06488849150277
H            4.00791497605742        1.03430808813993       -0.67357694370751
H            2.69910007168542        2.09770118228144       -0.09130154882931
H            3.56654120610678       -1.63682992603973        0.04233140067262
H           -1.67107961066214        3.09322851271934       -0.02552706933167
H           -2.82428953597071        2.09428624779827       -0.95318082946668
H           -2.87644029173232        2.07745725625962        0.81450067533302
H           -1.17061996399332       -3.19584890659852        0.83242232437030
H           -1.14560257411436       -3.17511610292205       -0.95688275822323
H           -2.55549792440841       -2.55659984320617       -0.07459039797972
H            1.38130855184625       -2.94313852034425       -0.01389874181052
25
 energy: -2.903158407567 xtb: 6.6.1 (8d0f1dd)
C            3.24640719948171        1.19294905456802        0.08849488380569
N            2.31275251766722        0.10819521575625        0.04680944344303
C            2.61026783304178       -1.21685193168428        0.04664291947685
N            1.44344608112560       -1.93204424426020        0.01697852074226
C            0.40487044717073       -1.05726522038694       -0.01024363917824
C            0.93448020053779        0.22669099425770        0.02146390784102
C            0.10809208540922        1.40110516093787       -0.00217434156714
O            0.50447076304584        2.56698612167855       -0.00320247937290
N           -1.25198471424016        1.05371063452735       -0.02687187658337
C           -2.21128481796749        2.15325845993659       -0.05315093422010
C           -1.81172672815269       -0.20178363333092       -0.04171256078720
O           -3.00854637756549       -0.38016478405610       -0.06308320037218
N           -0.92629798019164       -1.31270813011326       -0.05563310316430
C           -1.48619238331278       -2.66113285529559       -0.08626700078754
H            3.72765151129588        1.24393378705732        1.06862946985256
H            4.01359086432186        1.05644727471331       -0.67529794935183
H            2.69948131237277        2.11679327943992       -0.08996113651592
H            3.59094369512356       -1.63524143046557        0.06260800695869
H           -1.65296277674604        3.08719482589642       -0.02907525600470
H           -2.81265738689940        2.09930202408603       -0.96024124355678
H           -2.87391303277676        2.08772363546090        0.80904827911557
H           -1.11927190188513       -3.23363369123844        0.76307167692444
H           -1.34854674599399       -3.29763494052147       -1.00430884304753
H           -2.56642861305526       -2.54111486267253       -0.00607265193998
H            1.38557361612907       -2.93568614211889        0.01058300443689
25
 energy: 7.541450988124 xtb: 6.6.1 (8d0f1dd)
C            3.25615044695652        1.22500218118688        0.09392458563079
N            2.32608220610152        0.14559921815512        0.06030422393496
C            2.64324202278478       -1.21080779114695        0.07839379253889
N            1.45540167012525       -1.92053748968155        0.04404368307079
C            0.42291173721688       -1.05913662676635       -0.01237783874468
C            0.93197228405861        0.24061653985661        0.02741400537906
C            0.12790329182326        1.39098234236691       -0.00043254705523
O            0.50528753462799        2.58096849010512       -0.00259244506993
N           -1.25251922194901        1.04143892850918       -0.02397637939835
C           -2.19772143579731        2.15240474029556       -0.05780844043356
C           -1.79680559313816       -0.20733017370230       -0.04818741482488
O           -3.00346608947564       -0.38217399526800       -0.05179926186635
N           -0.92387221580323       -1.33645611781113       -0.09493505644814
C           -1.51754091867498       -2.68352175354218       -0.12128559789472
H            3.74898169320221        1.28638960143456        1.07039992946251
H            4.02031243220047        1.08873667876938       -0.67636287463314
H            2.70273217139539        2.14381053908471       -0.08728175276095
H            3.62002639254519       -1.61877598373423        0.09598860687207
H           -1.62526438240928        3.08045722093983       -0.03335555951304
H           -2.79262879685559        2.10852566777749       -0.97067817515095
H           -2.86897434884844        2.10376405797905        0.79940531985313
H           -1.02372481993642       -3.29706473681334        0.64551801470079
H           -1.66449421065670       -3.44819321755031       -1.07429749293052
H           -2.58685156625386       -2.51467400861493        0.11934262244996
H            1.40507438469677       -2.92099570965710        0.04766994897873
25
 energy: 21.902451922150 xtb: 6.6.1 (8d0f1dd)
C            3.26036182535210        1.24897334685656        0.09459050069125
N            2.33242415323513        0.16581149995455        0.07628636826401
C            2.66105512031496       -1.19967669698223        0.11241812673707
N            1.47083399174179       -1.91009266116401        0.07090126998187
C            0.42992183217660       -1.06677364766146       -0.01349195566434
C            0.93075238207982        0.24407595731669        0.03211286039847
C            0.14088887100640        1.38902846920399       -0.00047510774266
O            0.50533399629057        2.58598464660170       -0.00301010047905
N           -1.25073864898498        1.03681693514710       -0.02267274542364
C           -2.18324488266650        2.15662500778038       -0.06124272795492
C           -1.78706765090993       -0.21208030093008       -0.05530758310980
O           -2.99655882238397       -0.38151916913404       -0.03995685304200
N           -0.92672337631901       -1.36053093868597       -0.13216647265105
C           -1.55755400794514       -2.70781444099996       -0.14986542198218
H            3.76691759503116        1.32472783716187        1.06447615810202
H            4.02096303929121        1.11586555688182       -0.68164818689609
H            2.70587401597148        2.16765768289377       -0.08845691239590
H            3.64179603239226       -1.59653916995057        0.12991362810984
H           -1.59630134289370        3.07696390097895       -0.03590234427264
H           -2.77170326080970        2.12092911232935       -0.97870133579066
H           -2.85966972461766        2.12186996898781        0.79236446863898
H           -0.94625035686153       -3.36368656071459        0.51375466024687
H           -1.91939945001392       -3.54180399181219       -1.11497211250481
H           -2.59452838169662       -2.51439123886868        0.23205109511481
H            1.43483171915541       -2.91139250301867        0.08603461977181
25
 energy: 31.802960289952 xtb: 6.6.1 (8d0f1dd)
C            3.26023340140235        1.26251926060218        0.09064546196376
N            2.33381933575480        0.17212905411354        0.09172946385123
C            2.66515673713605       -1.18599325020775        0.14086850307906
N            1.48500019600803       -1.90038235431813        0.09228192296940
C            0.42918728441666       -1.07349553818748       -0.01045640350088
C            0.93136342356608        0.24197859515606        0.03430428031795
C            0.14774828762288        1.39368263942125       -0.00119913275657
O            0.50733485457437        2.58464079762877       -0.00318844679613
N           -1.24698075879250        1.03917042959479       -0.02299176961313
C           -2.17146718557824        2.16400418913415       -0.06102991295045
C           -1.78235959256850       -0.21305642549002       -0.06146231587295
O           -2.98935974180460       -0.37812050113781       -0.02881533122402
N           -0.93088259635685       -1.37559500373477       -0.15687823196153
C           -1.58590107010291       -2.72656981788479       -0.16431542664465
H            3.77887352262162        1.34980363975663        1.05316459356291
H            4.01526264775132        1.13185559496670       -0.69201034166409
H            2.70589683388692        2.18255115889872       -0.09204983005427
H            3.65252934553753       -1.57396897523867        0.15374986469268
H           -1.57440514433592        3.07797425214947       -0.03369442159157
H           -2.75601964466984        2.13517935721794       -0.98062374348566
H           -2.84921556568135        2.13768090256054        0.79095358174624
H           -0.92263672116343       -3.40585717774020        0.40137560600999
H           -2.08555184609324       -3.60839330687571       -1.11780870782786
H           -2.57045513415486       -2.53852980743158        0.28703513141095
H            1.46504379895982       -2.90417911078181        0.11744950248682
25
 energy: 36.599225188208 xtb: 6.6.1 (8d0f1dd)
C            3.25754318217434        1.26222058989983        0.09149096712742
N            2.33171441108653        0.16762960411409        0.10463305404577
C            2.65738569874341       -1.17557554494705        0.15922938229728
N            1.49120286886308       -1.89427554031523        0.09905509488804
C            0.42429196136600       -1.07515504255495       -0.01015802330386
C            0.93257495398663        0.23922974299061        0.03081387929927
C            0.14892416413188        1.40013320369603       -0.00365243190356
O            0.51083998390325        2.58165193762412       -0.00444790695445
N           -1.24293006952654        1.04404405359635       -0.02773563934196
C           -2.16726622714750        2.16889116857884       -0.06508608952031
C           -1.78316740044587       -0.21089801223960       -0.06237455235434
O           -2.98575342438788       -0.37507958925452       -0.02391452937084
N           -0.93248159432456       -1.37655144313585       -0.16635190087696
C           -1.59088004946718       -2.73253313560832       -0.16829848342061
H            3.77862575889053        1.35146686164106        1.05070003082053
H            4.00869300312884        1.13025892301460       -0.69393802874741
H            2.70339082993108        2.18290119713935       -0.09017632476965
H            3.64895099743542       -1.56086865739652        0.16624316132414
H           -1.56968445815803        3.08168618639355       -0.03564002595443
H           -2.75019130453898        2.14281065708571       -0.98513752325686
H           -2.84504023639946        2.14413524406478        0.78619773743746
H           -0.88529056663521       -3.42258668751215        0.30938267263692
H           -2.17965866852251       -3.62759827825987       -1.12121428300241
H           -2.53096371478694       -2.55730637346259        0.35596122287376
H            1.48138456863584       -2.89960246298022        0.13145243617431
25
 energy: 36.718368793742 xtb: 6.6.1 (8d0f1dd)
C            3.25569587946654        1.25702074982850        0.09223282260238
N            2.32862557844037        0.16167070363862        0.11118930034861
C            2.64717728608231       -1.17094698704866        0.16874974600344
N            1.48903591030638       -1.89274700988369        0.09900315472361
C            0.41838534167898       -1.07351542938828       -0.00899144980230
C            0.93219341610911        0.23864380906845        0.02616002659847
C            0.14707085661983        1.40284067941409       -0.00514343507951
O            0.51320009692138        2.57973099483034       -0.00397553451409
N           -1.24039180877992        1.04729095089707       -0.03358547563191
C           -2.16683268947035        2.17151204619957       -0.06782554524383
C           -1.78692522767347       -0.20738874453118       -0.06500779820392
O           -2.98682147980622       -0.37135954381160       -0.02143024500753
N           -0.93433829013587       -1.37027193154757       -0.16449616339965
C           -1.58527752192341       -2.72897470196630       -0.16356902862677
H            3.77646356900329        1.34517873483026        1.05073248352538
H            4.00537066629727        1.12282794083389       -0.69341207522915
H            2.70209656376005        2.17782234912770       -0.08896859396549
H            3.63965779550134       -1.55876211455249        0.16748611851528
H           -1.57185861496618        3.08573735800244       -0.03679173675882
H           -2.74988363371663        2.14589880735551       -0.98766581131929
H           -2.84458916488055        2.14405557930565        0.78343363365795
H           -0.86219884187043       -3.42037491115392        0.25632681917671
H           -2.19988514702104       -3.61946657043664       -1.11159560674124
H           -2.49495816297719       -2.57930076534000        0.39000217737774
H            1.48120229097059       -2.89809339149968        0.13417611314118
25
 energy: 35.290324043212 xtb: 6.6.1 (8d0f1dd)
C            3.25466684607544        1.25226126223013        0.09489606794492
N            2.32636317624190        0.15814131558870        0.11477052867594
C            2.64072671835647       -1.17169449812758        0.17611898325180
N            1.48402472974951       -1.89485012676331        0.09712069571942
C            0.41421085981608       -1.07201891049557       -0.01030958239610
C            0.93069973231085        0.23904471111336        0.02254398231904
C            0.14438515738244        1.40282667686812       -0.00620999956497
O            0.51442511587883        2.58016340302243       -0.00408648500676
N           -1.24025845608019        1.04874394434560       -0.03833260475674
C           -2.16823517876448        2.17277719224004       -0.07235320666956
C           -1.79112741924079       -0.20451771458779       -0.06492695320142
O           -2.99044235613380       -0.36867686815569       -0.02221912037847
N           -0.93687843856232       -1.36407337279656       -0.16214165199370
C           -1.57943634793523       -2.72360704667546       -0.16171640666912
H            3.77353945089293        1.33877322715663        1.05442582235292
H            4.00488171525310        1.11552451310545       -0.68943160672909
H            2.70141474707899        2.17267176085852       -0.08711407608977
H            3.63220981424497       -1.56347890896919        0.16697023734796
H           -1.57543373825520        3.08852861917826       -0.04102311719259
H           -2.75129369047333        2.14588490701884       -0.99226584885941
H           -2.84638468888891        2.14291609055310        0.77885129751733
H           -0.82329073315379       -3.41942112551248        0.21220750513155
H           -2.20518623472610       -3.59425420698195       -1.11409365347754
H           -2.47544191518367       -2.59309433766147        0.44099401596486
H            1.47407580205250       -2.89954190438007        0.13435907290676
25
 energy: 32.860709986492 xtb: 6.6.1 (8d0f1dd)
C            3.25433342387102        1.25109593834456        0.09431010219729
N            2.32570981314509        0.15752664801400        0.11400629144879
C            2.63995697780723       -1.17397473947324        0.17854187824773
N            1.48128031844865       -1.89771209250058        0.09614193924658
C            0.41342837967927       -1.07232571004671       -0.01056507188232
C            0.92974857761124        0.23878690342476        0.02186842621720
C            0.14225046405089        1.40040218412834       -0.00575254055955
O            0.51395589357816        2.57947009992405       -0.00312972775696
N           -1.24108809168276        1.04775847070807       -0.03941347536964
C           -2.16907595406286        2.17240918199582       -0.07195537266429
C           -1.79282961199316       -0.20465523112149       -0.06584506897123
O           -2.99245006265134       -0.36909803552729       -0.02415008151614
N           -0.93822542571813       -1.36231628177998       -0.16071005012745
C           -1.57719766265336       -2.72109318656797       -0.15891470080229
H            3.77353526341184        1.33770012263572        1.05418055647887
H            4.00495409144883        1.11396153529970       -0.68968842658999
H            2.70083976999241        2.17115957594431       -0.08798054256636
H            3.63036201045619       -1.56811643404719        0.16207179883111
H           -1.57623903907339        3.08834029198529       -0.04060755228307
H           -2.75292540889771        2.14538492785066       -0.99149764271511
H           -2.84676017356878        2.14114088627104        0.77979134301986
H           -0.82974652454127       -3.40840521003153        0.20906468553688
H           -2.18292142736369       -3.57819289073231       -1.10538021868906
H           -2.46737311351688       -2.59830501736450        0.43896141091515
H            1.46869218015870       -2.90191333516146        0.13368593650126
25
 energy: 30.890255453833 xtb: 6.6.1 (8d0f1dd)
C            3.25406342752071        1.25109697647953        0.09424945936140
N            2.32524658541197        0.15827554694751        0.11322685187690
C            2.64105857001123       -1.17665734166446        0.18158994817406
N            1.47917270373818       -1.89969073074196        0.09664438550180
C            0.41319902285403       -1.07318751313206       -0.01100406712016
C            0.92866920049797        0.23808905767029        0.02260621169916
C            0.14102297176031        1.39840010658425       -0.00573235682706
O            0.51369296447368        2.57876482953705       -0.00370486145814
N           -1.24258242834306        1.04736132543056       -0.03923380807113
C           -2.16945624891846        2.17279679365395       -0.07223713666540
C           -1.79383393797817       -0.20466866736178       -0.06591403886789
O           -2.99428373656333       -0.36912282655542       -0.02545790349925
N           -0.94069277238302       -1.36229793167870       -0.16058113908553
C           -1.57977555056235       -2.72140037249820       -0.15632735111303
H            3.77380510020445        1.33834088903107        1.05419221540022
H            4.00509856373259        1.11383806357609       -0.68968532939586
H            2.70063062020832        2.17110071561210       -0.08850933218525
H            3.63050145192519       -1.57168082962758        0.15757590954979
H           -1.57524560036976        3.08785528198748       -0.04145413196742
H           -2.75331460766823        2.14547920717792       -0.99178492603059
H           -2.84692396991933        2.14211327353739        0.77971237546277
H           -0.82548767203141       -3.40946374408422        0.20517913306600
H           -2.17141742390250       -3.55947413836916       -1.10078907966730
H           -2.46600574554877       -2.60319969579330        0.43917456543757
H            1.46507317978594       -2.90363967354628        0.13529830257161
25
 energy: 27.206721259156 xtb: 6.6.1 (8d0f1dd)
C            3.25327542276090        1.25125637894703        0.09542746987524
N            2.32445862258125        0.15950464427412        0.11222416147514
C            2.64375860226673       -1.18089136528302        0.18810093928744
N            1.47695971781821       -1.90276633057392        0.09621857893106
C            0.41385766649186       -1.07542378240939       -0.01468809142975
C            0.92728033142405        0.23587955382827        0.02366418150519
C            0.13898340094528        1.39494674055381       -0.00642488316304
O            0.51294469411695        2.57667228649179       -0.00444631725887
N           -1.24505562583039        1.04622636167654       -0.03900654136987
C           -2.17010626554976        2.17268070018669       -0.07247955126690
C           -1.79435716817662       -0.20611755651662       -0.06828152588361
O           -2.99614081406036       -0.37117136631790       -0.02960132126517
N           -0.94375734701207       -1.36348660972589       -0.16617707110028
C           -1.58441630561517       -2.72467099358394       -0.15614769065346
H            3.77359612113470        1.33925410032659        1.05542681151995
H            4.00505636792707        1.11421737146092       -0.68842613061041
H            2.70015479931035        2.17137861888988       -0.08799706947920
H            3.63182015227859       -1.57633250020772        0.14818994998179
H           -1.57356166170904        3.08608562013143       -0.04217936496677
H           -2.75380366778010        2.14556947512096       -0.99211220641656
H           -2.84725096768832        2.14317630174024        0.77961869774567
H           -0.82442580999338       -3.40559575669516        0.19954031249637
H           -2.15367594203788       -3.52699660120800       -1.09329087110362
H           -2.46483831607872       -2.60793898649369        0.45273996382203
H            1.46145866041206       -2.90642770244096        0.13714146547488
25
 energy: 24.152624507725 xtb: 6.6.1 (8d0f1dd)
C            3.25219762169649        1.25083438189800        0.09656312219236
N            2.32309313617809        0.15976624234560        0.11235807375069
C            2.64480763644814       -1.18304902857958        0.19561555135601
N            1.47588032843399       -1.90400566133362        0.09621657182951
C            0.41404633393979       -1.07730758615193       -0.01682828294549
C            0.92629239080235        0.23341172105962        0.02478160418932
C            0.13789546585959        1.39327936789172       -0.00785488152829
O            0.51240100502053        2.57440613838175       -0.00630653163744
N           -1.24643161336190        1.04565283963033       -0.03833890321217
C           -2.17025806117989        2.17238587705142       -0.07293798181016
C           -1.79394785835092       -0.20780753872324       -0.06982886651017
O           -2.99631929168258       -0.37323152028541       -0.03184545279371
N           -0.94553836134224       -1.36458732014198       -0.17184521612074
C           -1.58960456330990       -2.72965919485519       -0.15843666664301
H            3.77299492146025        1.33932690800745        1.05621373909816
H            4.00409403390018        1.11378556712289       -0.68753257443198
H            2.69999291528954        2.17151074330033       -0.08740200575225
H            3.63237695361589       -1.57733744876254        0.13910600612507
H           -1.57221650070368        3.08462709907796       -0.04301138340805
H           -2.75369360358902        2.14565748963675       -0.99265397015979
H           -2.84729504221515        2.14451700361761        0.77910989260425
H           -0.82281860947903       -3.40781817924370        0.19377964263129
H           -2.14449729954493       -3.49818562249911       -1.08411557954242
H           -2.46257600157448       -2.60947695087234        0.46332939055082
H            1.46133873162504       -2.90766672540075        0.13889859831547
25
 energy: 21.181070199708 xtb: 6.6.1 (8d0f1dd)
C            3.25081858251519        1.24990061556053        0.09813731603878
N            2.32121005111298        0.15912582153067        0.11378973345981
C            2.64450585676890       -1.18337328465474        0.20699801672669
N            1.47606682757205       -1.90382842740588        0.09593144047795
C            0.41407398062732       -1.07907086963989       -0.01963846793799
C            0.92574357420207        0.23058011892342        0.02505835737326
C            0.13774776396478        1.39286532243081       -0.01042388230812
O            0.51166887939780        2.57173384281301       -0.00868295057901
N           -1.24674948806638        1.04489368578084       -0.03786162363026
C           -2.16994655162325        2.17124145110990       -0.07307568436674
C           -1.79232633101776       -0.21062761913228       -0.07307863924161
O           -2.99476008151301       -0.37605110740914       -0.03291697828418
N           -0.94533209735281       -1.36571838707509       -0.18206119835429
C           -1.59528665272840       -2.73750513311118       -0.16584304598029
H            3.77200883005199        1.33862772838523        1.05709432181265
H            4.00229898040462        1.11264655839254       -0.68648323976751
H            2.70007722271337        2.17152314993763       -0.08632833630558
H            3.63225331026416       -1.57460912593291        0.12832769585777
H           -1.57115442424419        3.08285861928999       -0.04288361698957
H           -2.75307886391957        2.14577373662557       -0.99292811979115
H           -2.84709789783789        2.14501898833513        0.77872321619456
H           -0.82349302299131       -3.41174190549251        0.18966876100915
H           -2.14453478432147       -3.46978051599183       -1.06923732996237
H           -2.45751916173818       -2.60769968508135        0.47456976466713
H            1.46502016569515       -2.90775497601644        0.14017838602819
25
 energy: 22.347827313022 xtb: 6.6.1 (8d0f1dd)
C            3.25093279502279        1.24959601884400        0.09824165289959
N            2.32127633395254        0.15813035496364        0.11531914142409
C            2.64277446513545       -1.18067678136934        0.20957301188609
N            1.47776051175948       -1.90188446731419        0.09568606415099
C            0.41394644298746       -1.07821470787060       -0.01962421986241
C            0.92664239033723        0.23118614884860        0.02366097020432
C            0.13920226184787        1.39478607685198       -0.01102828893772
O            0.51156792094887        2.57228455533924       -0.00877386212616
N           -1.24519714077215        1.04485497136199       -0.03834331374133
C           -2.16945912204443        2.17041846326487       -0.07278224864530
C           -1.79112342319293       -0.21124542689558       -0.07390709692598
O           -2.99269141740182       -0.37626646549244       -0.03082832224599
N           -0.94231137204766       -1.36521698909791       -0.18519066594827
C           -1.59361543208090       -2.73882664229539       -0.17066358635585
H            3.77194073315577        1.33796350882965        1.05692880012199
H            4.00179093789691        1.11212069612497       -0.68662570644412
H            2.70036436662756        2.17136729215356       -0.08599161964239
H            3.63127383450040       -1.57024002736019        0.12941333684146
H           -1.57197690704917        3.08301652136590       -0.04182358318022
H           -2.75261911811759        2.14566380628913       -0.99265235809130
H           -2.84685985071977        2.14361927526019        0.77884912714779
H           -0.82561757634075       -3.41474828410964        0.19308424217897
H           -2.16065057561377       -3.47976755908995       -1.06662275437173
H           -2.45410952147837       -2.60284142081979        0.47198051921601
H            1.46897313062315       -2.90605031561066        0.13915465659476
25
 energy: 21.698183459732 xtb: 6.6.1 (8d0f1dd)
C            3.25092301606665        1.24862378227576        0.09779172556226
N            2.32114609191577        0.15685981366615        0.11587545201924
C            2.64076785694999       -1.18025702394983        0.21305403166332
N            1.47688705623259       -1.90234275833457        0.09483122090612
C            0.41284606801299       -1.07758577740405       -0.02035307968332
C            0.92673735994970        0.23175351757684        0.02166851207782
C            0.13912684345692        1.39491646486265       -0.01103663565532
O            0.51134855200035        2.57281402782688       -0.00827628453440
N           -1.24467003934188        1.04429196975921       -0.03950120326447
C           -2.16958972034348        2.16986259406663       -0.07251482392929
C           -1.79199667394429       -0.21134792506846       -0.07442562852293
O           -2.99316811449567       -0.37592664816474       -0.02972304247309
N           -0.94129434018473       -1.36357951091386       -0.18667788278911
C           -1.59123263795079       -2.73800875074198       -0.17360280648843
H            3.77195860706460        1.33686604705615        1.05655563721395
H            4.00164290373190        1.11068331378396       -0.68698314685263
H            2.70011200361614        2.17010760967651       -0.08646034595450
H            3.62929476557808       -1.57030712360899        0.12907928860429
H           -1.57289292002756        3.08322396790941       -0.04111772342088
H           -2.75314324062348        2.14541669240608       -0.99223519444840
H           -2.84689247869104        2.14180944920643        0.77935666884347
H           -0.82640465985042       -3.41362923677588        0.19518886171888
H           -2.15701659249856       -3.47571839597527       -1.06162351567991
H           -2.44994435050260       -2.60316791529346        0.47007758922678
H            1.46766931181500       -2.90632958166953        0.13808622200782
25
 energy: 21.673563221231 xtb: 6.6.1 (8d0f1dd)
C            3.25112308566563        1.24865146737944        0.09731079145645
N            2.32163517883844        0.15660400838050        0.11592888633502
C            2.64035845423762       -1.18034529878278        0.21394933181309
N            1.47644443030703       -1.90284210676594        0.09479207838231
C            0.41254073946510       -1.07734707934588       -0.02068173378485
C            0.92693153792799        0.23235029291904        0.02048022963277
C            0.13909139126117        1.39461072888530       -0.01060605117915
O            0.51122540919097        2.57333770023464       -0.00745173507686
N           -1.24460996305279        1.04389620891364       -0.04040522091599
C           -2.16970196036328        2.16975776726318       -0.07235238637900
C           -1.79266712323796       -0.21115082156868       -0.07443404407036
O           -2.99368855414358       -0.37569888716969       -0.02906799477635
N           -0.94093926219252       -1.36316280037646       -0.18676133085960
C           -1.58971398601051       -2.73672987628366       -0.17445668742354
H            3.77235918963068        1.33694929586742        1.05611494995035
H            4.00181124051345        1.11077730527792       -0.68749122004727
H            2.69967205184752        2.16971462335315       -0.08668981109459
H            3.62871313062327       -1.57129067874240        0.13009356578475
H           -1.57313853669266        3.08328292146899       -0.04082505802475
H           -2.75350858576345        2.14539282405849       -0.99194080285402
H           -2.84680287242094        2.14097706255981        0.77973716705449
H           -0.82624610087299       -3.41262793757608        0.19731885394045
H           -2.15572537158429       -3.47615193467020       -1.06196185024869
H           -2.44900465148935       -2.60324832089194        0.46829881874553
H            1.46605579625167       -2.90667786221578        0.13813514978709
25
 energy: 21.499567952819 xtb: 6.6.1 (8d0f1dd)
C            3.25113580026592        1.24894342334625        0.09715446619396
N            2.32205423150961        0.15665427161268        0.11602817531234
C            2.64058481856354       -1.18058816770538        0.21518910231897
N            1.47634563300747       -1.90319349483623        0.09504961155212
C            0.41265808415645       -1.07755146051816       -0.02108772597346
C            0.92713661485618        0.23244578252508        0.01973316030537
C            0.13903353977308        1.39413729803533       -0.01039364708130
O            0.51109458285787        2.57332904908353       -0.00685419240080
N           -1.24474403143600        1.04361792125329       -0.04118168580326
C           -2.16975392303151        2.16975133018789       -0.07237637925237
C           -1.79288633620083       -0.21112083997216       -0.07449313692235
O           -2.99380724768240       -0.37602227078462       -0.02870393878773
N           -0.94083053862395       -1.36349839327782       -0.18735909340236
C           -1.58953735837912       -2.73629228428181       -0.17520841640811
H            3.77272795447301        1.33732128790075        1.05582684693677
H            4.00171977146262        1.11145718626184       -0.68786648183915
H            2.69913667636255        2.16972856560130       -0.08645427859948
H            3.62866624518916       -1.57219836370772        0.12947960936425
H           -1.57293897100264        3.08305451386978       -0.04087330998710
H           -2.75375369936618        2.14547106875500       -0.99181479439075
H           -2.84655857404514        2.14075756111698        0.77992951464300
H           -0.82661158539206       -3.41265520316328        0.19838511503621
H           -2.15490399977954       -3.47463887126357       -1.06215265296320
H           -2.44870232320814       -2.60293393494723        0.46816774755554
H            1.46494930360626       -2.90694737291965        0.13891028074016
