  72
        -99.32414524
 N         -1.4255827503        2.4520727828        2.4708425642
 C         -2.1615265311        2.2542617052        1.6174953276
 C         -3.0915590759        2.0735036306        0.5213015673
 C         -3.6268167212        0.6530229961        0.4969684831
 C         -4.5174600360        0.2742541836       -0.5067368506
 C         -5.0186734580       -1.0167348286       -0.5736243405
 O         -5.8897009158       -1.4672262751       -1.4943508417
 C         -6.4273650985       -0.5724601135       -2.4407286634
 C         -4.6027848059       -1.9812087305        0.3893807266
 O         -5.1211804400       -3.2108337708        0.2355564951
 C         -4.7837923263       -4.2230711893        1.1563294873
 C         -3.7219317866       -1.5895804468        1.3881184386
 C         -3.2457100528       -0.2886910627        1.4438050726
 C         -2.3267157561        2.3914405081       -0.7931025091
 C         -1.4362433333        1.2569112084       -1.3023771609
 C         -0.2880070144        0.9300033717       -0.3427991426
 N          0.6163649616       -0.0493607246       -0.8912103219
 C          1.9805111763       -0.0233610397       -0.4277861567
 C          2.9634838178       -0.3247671763       -1.5780372182
 C          4.3798074581       -0.2291083657       -1.0958682495
 C          5.0776255972        0.9703562405       -1.1780500515
 C          6.3783540689        1.0726945098       -0.7154437094
 C          7.0163357885       -0.0264643240       -0.1517668215
 O          8.2681745541       -0.0478943810        0.3275245996
 C          9.0587850297        1.1176721803        0.2615997393
 C          6.3088710527       -1.2624418469       -0.0589156694
 O          7.0030745791       -2.2725976940        0.4899274553
 C          6.4058622771       -3.5419687922        0.6172728465
 C          5.0048526603       -1.3361599506       -0.5283089109
 C          0.0418008738       -1.3590191061       -1.0717183527
 C         -4.2678428070        3.0762895446        0.7457054450
 C         -5.0157777648        2.7311452282        2.0326371330
 C         -3.7890282907        4.5251488652        0.7936759396
 H         -4.8236479494        0.9968193140       -1.2454597612
 H         -6.9540674187        0.2544091010       -1.9549651216
 H         -7.1358132143       -1.1568662506       -3.0245793531
 H         -5.6529499035       -0.1760175673       -3.1048123099
 H         -5.0958463467       -3.9610032715        2.1714405259
 H         -5.3255096020       -5.1082839368        0.8291103944
 H         -3.7093701393       -4.4305732149        1.1461968262
 H         -3.4037613825       -2.2928933395        2.1402778074
 H         -2.5787457138       -0.0126189156        2.2463800922
 H         -3.0593920602        2.6280454340       -1.5666861328
 H         -1.7131867105        3.2798260447       -0.6330050713
 H         -2.0418956254        0.3659547935       -1.4708509856
 H         -1.0081836747        1.5598335750       -2.2598962440
 H         -0.7069237384        0.5675689407        0.6085174549
 H          0.2693778320        1.8450356416       -0.1356590245
 H          2.1432209786       -0.7505834959        0.3815651979
 H          2.2052453473        0.9692415858       -0.0335974621
 H          2.7882386153        0.3974637660       -2.3755713609
 H          2.7711510038       -1.3230203932       -1.9721802399
 H          4.6043838150        1.8349352691       -1.6171841974
 H          6.8943749933        2.0150654755       -0.7999753871
 H          8.6114592857        1.9370648188        0.8317387208
 H          9.2155182754        1.4343793980       -0.7736619970
 H         10.0147232922        0.8474738660        0.7062341376
 H          7.1696061256       -4.1809350474        1.0564702893
 H          5.5358422144       -3.5089567865        1.2800776551
 H          6.1113306196       -3.9459151461       -0.3558927898
 H          4.4633710838       -2.2671351536       -0.4657349081
 H         -0.5940333376       -1.3717727200       -1.9576179451
 H         -0.5681155052       -1.6515476170       -0.2071465229
 H          0.8264644134       -2.0978737121       -1.2084984958
 H         -4.9571889614        2.9660133145       -0.0979919068
 H         -4.3556444250        2.8187078581        2.8933461437
 H         -5.4093963086        1.7171351046        2.0006179754
 H         -5.8482618532        3.4162334369        2.1718678170
 H         -3.0442693975        4.6604417654        1.5751180159
 H         -3.3636043468        4.8416148949       -0.1551899955
 H         -4.6315110578        5.1763466702        1.0141678679
 H          0.1243878132        3.2536783426        4.9200316443
