  25
        -42.17708562
 C          3.2808955088        0.2716637232       -0.2723028700
 N          1.8656746619        0.1520011523       -0.0895367357
 C          4.0624731552       -0.8167033351        0.4447840071
 N          1.2399292756       -1.0159120418       -0.1120155203
 C         -0.0582209884       -0.7469045893       -0.0326705320
 C         -0.3051788887        0.6535575136        0.0273807414
 C          0.9979067714        1.2847922755        0.0022274959
 O          1.3815319873        2.4272372136        0.0490965717
 N         -1.6257552724        0.8586563821        0.0446809521
 C         -2.3488281225        2.0915603280        0.0561082951
 C         -2.2579829820       -0.4135738668        0.0007833005
 O         -3.4367617679       -0.6016202397       -0.0080971108
 N         -1.2466741529       -1.3878511472       -0.0368807126
 C         -1.5258828032       -2.7955298449       -0.0912144193
 H          3.9327828250       -0.7397715375        1.5247226332
 H          3.4976701739        0.2229192693       -1.3521784781
 H          3.5607113125        1.2755023229        0.0687391972
 H          5.1195432586       -0.7098718319        0.2092211244
 H         -1.6496698647        2.9221771072        0.1319888961
 H         -2.9385613432        2.1809830055       -0.8601654949
 H         -3.0467434734        2.1028857103        0.8963271299
 H         -1.0925039778       -3.3031445553        0.7720851209
 H         -1.1045591510       -3.2322755284       -0.9983757540
 H         -2.6083562489       -2.9218220904       -0.0888896685
 H          3.7254166249       -1.8030317065        0.1283536663
