  25
        -42.22278910
 C          3.2836849914        1.3950380389       -0.0415897571
 N          2.4775824302        0.2033958170       -0.0003164343
 C          2.9035639461       -1.0536401028        0.0377319459
 N          1.8582699670       -1.9013243649        0.0559252313
 C          0.7130692786       -1.1593761514        0.0286118452
 C          1.1058751376        0.1738489756       -0.0084055542
 C          0.1179334183        1.2153622182       -0.0168497399
 O          0.3289772138        2.4050646109       -0.0267275223
 N         -1.2065468315        0.6899463192       -0.0027863532
 C         -2.2354647861        1.7261728696        0.0399736205
 C         -1.4834604092       -0.6553818361        0.0081349293
 O         -2.6647470445       -1.2084720973        0.0129743714
 N         -0.5410535023       -1.5805336973        0.0289844215
 C         -3.9703025634       -0.6541117352       -0.1026402356
 H          4.0071445060        1.3924440673        0.7729996002
 H          3.8202440780        1.4568665369       -0.9891289255
 H          2.6282915776        2.2601535856        0.0526198100
 H          3.9342834746       -1.3512207957        0.0532584141
 H         -1.7183357716        2.6844519369       -0.0278594443
 H         -2.9168983443        1.6454344538       -0.8014627517
 H         -2.7722431096        1.6989994188        0.9859283775
 H         -4.6269220513       -1.5160832173        0.0218601661
 H         -4.1368388007       -0.2287965979       -1.0936476560
 H         -4.1955524706        0.0731242826        0.6754512201
 H          1.9037617499       -2.9104519228        0.0872513858
