  72
        -99.43830473
 N         -2.1806084934        3.4256335562        2.0709932930
 C         -2.0947114947        2.1710568274        1.6409841659
 C         -3.0632550731        1.9168920333        0.5358268490
 C         -3.6756231971        0.5308521525        0.5373275669
 C         -4.5568728160        0.1743573238       -0.4866422401
 C         -5.1298180794       -1.0841606918       -0.5442985216
 O         -5.9862237282       -1.5078700012       -1.4978298701
 C         -6.3557209287       -0.6277370292       -2.5320096034
 C         -4.8181064331       -2.0409092996        0.4583000038
 O         -5.4043216013       -3.2463329954        0.3164020981
 C         -5.1428413958       -4.2488989883        1.2711238040
 C         -3.9623433605       -1.6721954353        1.4826049185
 C         -3.4026878093       -0.4021137737        1.5228959588
 C         -2.3951193109        2.2035550707       -0.8493449186
 C         -1.4587336297        1.1082879847       -1.3510259616
 C         -0.1075761372        1.1597182265       -0.6418380682
 N          0.7574687578        0.0529977845       -0.9581707210
 C          2.1388451141        0.2263268383       -0.5621743076
 C          3.0885233122       -0.2948509615       -1.6555917310
 C          4.5061555773       -0.2112469253       -1.1760097322
 C          5.2112825241        0.9806543646       -1.2513740164
 C          6.4985007871        1.0784736141       -0.7480409883
 C          7.1105042114       -0.0177274987       -0.1560816510
 O          8.3495505778       -0.0337278643        0.3753494889
 C          9.1182397474        1.1456742957        0.3540074233
 C          6.4020419402       -1.2482533286       -0.0857762672
 O          7.0727668414       -2.2675398524        0.4903080373
 C          6.4667943297       -3.5361072128        0.5563952405
 C          5.1128354772       -1.3185281863       -0.5900723238
 C          0.2198092275       -1.2499650065       -0.6445521972
 C         -4.1002521956        3.0536439658        0.8064449620
 C         -5.1890622308        2.6213057618        1.7825830652
 C         -3.2382538926        4.1652189937        1.4287427957
 H         -4.8020711200        0.8976454686       -1.2459792092
 H         -6.8713931300        0.2562157846       -2.1434610091
 H         -7.0385042775       -1.1916804013       -3.1644224754
 H         -5.4890224217       -0.3164718205       -3.1240233251
 H         -5.4840074455       -3.9525578456        2.2677146662
 H         -5.7059582202       -5.1199379138        0.9421482536
 H         -4.0778859916       -4.4986110714        1.3082517178
 H         -3.7221907475       -2.3696964489        2.2683043012
 H         -2.7582066886       -0.1620198641        2.3524669107
 H         -3.1957667625        2.3337515939       -1.5764275709
 H         -1.8497564921        3.1471293556       -0.7926519939
 H         -1.9339910530        0.1410636697       -1.1978606205
 H         -1.2984388785        1.2375974529       -2.4222722479
 H         -1.4255370403        1.4823780840        2.1161765010
 H          0.4064470017        2.0794108581       -0.9349328201
 H          2.3534080274       -0.2950791014        0.3822248606
 H          2.3427318588        1.2872423138       -0.4061419818
 H          2.9484027750        0.3113775558       -2.5507579912
 H          2.8301997343       -1.3253503495       -1.8980941414
 H          4.7571653495        1.8444117821       -1.7124901997
 H          7.0217962451        2.0176045881       -0.8239397923
 H          8.6343594115        1.9487874165        0.9190066862
 H          9.3085060592        1.4829304383       -0.6693687496
 H         10.0623590639        0.8878804931        0.8301906884
 H          7.1969965171       -4.1844629524        1.0369141661
 H          5.5520566059       -3.5148015721        1.1575445685
 H          6.2391082970       -3.9236497182       -0.4415669215
 H          4.5639226100       -2.2457772560       -0.5389107756
 H         -0.5597075966       -1.5164718674       -1.3565507204
 H         -0.2041685854       -1.2925583576        0.3690984527
 H          1.0091276543       -1.9929602224       -0.7192794798
 H         -4.5639528950        3.3912103479       -0.1201992883
 H         -4.7539662826        2.2790037726        2.7186525051
 H         -5.7799754038        1.8107699587        1.3666396999
 H         -5.8524334897        3.4572556554        1.9893390548
 H         -3.7896845894        4.7594562205        2.1589689850
 H         -0.2976830361        1.2181466822        0.4436669080
 H         -2.8280622673        4.8435412987        0.6719891495
 H         -1.5925289110        3.8255975148        2.7840419537
