25
 energy: 0.000000000000 xtb: 6.6.1 (8d0f1dd)
C            3.23720163006194        1.16630919979326        0.08434469647475
N            2.29877817382611        0.07527477071623        0.03981603040599
C            2.58028210190900       -1.21425402444508        0.03006176031096
N            1.43813958087363       -1.93419271955128        0.00098261760884
C            0.39035688448383       -1.05887472636071       -0.00790371836672
C            0.93510056364412        0.21347819449412        0.01709077491437
C            0.09450143893243        1.40504303904423       -0.00410947031874
O            0.49712751527797        2.54126714362870       -0.00342325688240
N           -1.25076640035757        1.06271879480407       -0.03085478223738
C           -2.21907211982101        2.15522099834493       -0.05001256985998
C           -1.81739487048744       -0.20012725993278       -0.04692818574614
O           -2.99983886758376       -0.37846417018721       -0.07008878229737
N           -0.92618586207120       -1.30210215599479       -0.03682761578324
C           -1.46982264913417       -2.64643102187190       -0.06029820460571
H            3.71247264356769        1.21471455160235        1.06488849150277
H            4.00791497605742        1.03430808813993       -0.67357694370751
H            2.69910007168542        2.09770118228144       -0.09130154882931
H            3.56654120610678       -1.63682992603973        0.04233140067262
H           -1.67107961066214        3.09322851271934       -0.02552706933167
H           -2.82428953597071        2.09428624779827       -0.95318082946668
H           -2.87644029173232        2.07745725625962        0.81450067533302
H           -1.17061996399332       -3.19584890659852        0.83242232437030
H           -1.14560257411436       -3.17511610292205       -0.95688275822323
H           -2.55549792440841       -2.55659984320617       -0.07459039797972
H            1.38130855184625       -2.94313852034425       -0.01389874181052
25
 energy: -2.930111679397 xtb: 6.6.1 (8d0f1dd)
C            3.24119484338913        1.17274058563987        0.06718858894403
N            2.30495611612811        0.09182573306334        0.04937456382570
C            2.59888430144315       -1.23350778992931        0.06488330405632
N            1.43013006503975       -1.94470086688260        0.05723369400771
C            0.39628910150319       -1.06194801870147        0.03857494654950
C            0.92816130399861        0.21682246419314        0.03656416053090
C            0.09987346773701        1.38940245340441       -0.00593881674658
O            0.49779480987259        2.55362489971730       -0.03427469103154
N           -1.26174862315642        1.04676071396678       -0.01928194443067
C           -2.22171462626620        2.14265892000294       -0.06522417612755
C           -1.82426612543138       -0.20436990920407        0.00041458126500
O           -3.02000211183774       -0.38800142757242       -0.02910325197790
N           -0.93450601288115       -1.30309194938910        0.01958746218633
C           -1.46553806571234       -2.64118734534349       -0.08560094609340
H            3.73731757653098        1.22605872097985        1.03938790012663
H            3.99447738327333        1.02789301629094       -0.70851944626846
H            2.69336017056421        2.09643397663283       -0.10797191127518
H            3.57833241154729       -1.65392712432894        0.07884895327335
H           -1.66313301660950        3.07604411657756       -0.05288767645504
H           -2.82184381280510        2.07329548765899       -0.97203985912886
H           -2.88460901429643        2.08490510578734        0.79729329975288
H           -1.08581324419036       -3.27073099723927        0.73823743025818
H           -1.22217104676093       -2.99546556858745       -1.15427570296054
H           -2.55347415813516       -2.56343380622865        0.01163983559887
H            1.37026297499154       -2.94907278833648        0.06292359826759
25
 energy: 5.571433980526 xtb: 6.6.1 (8d0f1dd)
C            3.24428649400208        1.17418547466433        0.04089818442559
N            2.30773358596698        0.10408690086786        0.05920207936910
C            2.61287477534438       -1.25124009556845        0.11186787644979
N            1.42053360117752       -1.95125125852559        0.13436096635041
C            0.40236222890875       -1.06618937191049        0.10407979604444
C            0.91939627809835        0.21905330913973        0.06065223232293
C            0.10759468246570        1.36750427214017       -0.00548128766762
O            0.49016405649173        2.55136804541766       -0.06458649721038
N           -1.27492984057282        1.03185804633421       -0.00997419254427
C           -2.22454424788033        2.13084628372740       -0.08072111774777
C           -1.82554031637963       -0.20649721924715        0.03712906598041
O           -3.02807333945512       -0.39980619972767        0.01060182144186
N           -0.94212011796070       -1.30010854843247        0.10176077092066
C           -1.46054300536277       -2.62855983533914       -0.12328108734415
H            3.77166424712190        1.23824587083590        0.99868771736560
H            3.97480752310523        1.01987941795005       -0.75775563606402
H            2.68838782841424        2.09305690553941       -0.13031074260030
H            3.58679808293966       -1.66575903108493        0.12529169153279
H           -1.65595450675560        3.05900869408389       -0.06924259550847
H           -2.81239389709948        2.05809433389931       -0.99620376036527
H           -2.90060746854937        2.08485640395394        0.77265784803923
H           -0.97977037586121       -3.35133769746527        0.59891781805272
H           -1.32831978723902       -2.78520710041051       -1.37519621814611
H           -2.54617118062302       -2.58371020973589        0.12029420681130
H            1.36457936763875       -2.95334878893424        0.16338495623879
25
 energy: 15.170527811741 xtb: 6.6.1 (8d0f1dd)
C            3.24572617315859        1.17166380333404        0.01318338671983
N            2.30907908730386        0.10349382141172        0.07432279707794
C            2.61806617359732       -1.26133325634356        0.15796918798733
N            1.41966822907436       -1.95529883696887        0.20956339619008
C            0.40647070664183       -1.07316744483381        0.16942344419708
C            0.91689539384730        0.21542689175334        0.08883597760660
C            0.11093659575130        1.35630781478756       -0.00958278486378
O            0.48121004877898        2.54506816595609       -0.10078719358161
N           -1.28349359160560        1.02445116917093        0.00838651583832
C           -2.22809400300413        2.12209127972887       -0.09218589736326
C           -1.82636994893345       -0.21046540559403        0.09272548021350
O           -3.03008353894688       -0.41193855095138        0.07578307921095
N           -0.94370308638960       -1.30061424323844        0.17911821934011
C           -1.46442221191857       -2.60409173313912       -0.17842545637062
H            3.80599112998735        1.24801539160546        0.95312917086761
H            3.95140415430401        1.01208032816447       -0.80878346192053
H            2.68407339377280        2.08915733023656       -0.15109185170545
H            3.59292450708807       -1.67184184886793        0.16823130322971
H           -1.65320122531121        3.04655365255453       -0.09964708593115
H           -2.81087241823974        2.03032451111240       -1.00987276511835
H           -2.90916212209388        2.09622090131891        0.75850146746204
H           -0.91672166564125       -3.39636216124947        0.43973374199204
H           -1.40409354854016       -2.62121947262162       -1.53787077639091
H           -2.53019652528584       -2.60779035426265        0.16471905737241
H            1.37018296054072       -2.95770315089194        0.26165494408737
25
 energy: 19.094081834480 xtb: 6.6.1 (8d0f1dd)
C            3.24375070726044        1.16635882189017       -0.00773475757038
N            2.30864451695645        0.09554436320140        0.08872859486092
C            2.61709619997533       -1.26319785664525        0.19007302401621
N            1.42533620918622       -1.95632663576228        0.26134840507872
C            0.40765840545627       -1.08065066930706        0.20806402288292
C            0.91750110771102        0.20781772119731        0.10783425335640
C            0.11060685461124        1.35010214005238       -0.01362941665876
O            0.47508184428163        2.53265268488578       -0.12358299058502
N           -1.28633019272430        1.01974998607092        0.02211421795341
C           -2.23013134948177        2.11482829446508       -0.09570838653774
C           -1.82647021754797       -0.21593971126716        0.12549583096224
O           -3.02791881583519       -0.41853454073309        0.13177245256650
N           -0.94282137183150       -1.30938840558643        0.22224944469862
C           -1.46850901828472       -2.57938854786617       -0.21187697453093
H            3.82880612397302        1.25117744742073        0.91578532865021
H            3.92869367216580        1.00478837621385       -0.84678734867810
H            2.67847933543747        2.08383070177495       -0.16467277637064
H            3.59523906225776       -1.67133086677253        0.19719149147247
H           -1.65434798282300        3.03810712645361       -0.11869266081793
H           -2.81186789679255        2.00785011941724       -1.01255595257140
H           -2.91264308597446        2.10367547361560        0.75374487665042
H           -0.90052531821073       -3.39017840481728        0.33146879674806
H           -1.43854433635026       -2.51600249515820       -1.62256312555015
H           -2.50724084303893       -2.62706630894479        0.15765831497672
H            1.38267105755892       -2.95945021162668        0.33130923114450
25
 energy: 19.264510454649 xtb: 6.6.1 (8d0f1dd)
C            3.24080370549442        1.16149362242186       -0.01040522925234
N            2.30724564426373        0.08871661576496        0.09536594030543
C            2.61198057088857       -1.25893526619180        0.19958795796388
N            1.42957380977944       -1.95353263324307        0.27338592008857
C            0.40493752639204       -1.08272157105517        0.21379485930488
C            0.91818033603331        0.20385432941770        0.11074007605836
C            0.10938380698022        1.35005101276430       -0.01433062091421
O            0.47425037365902        2.52510978781109       -0.13624635188494
N           -1.28438518327213        1.01949426246686        0.02728528020079
C           -2.22930351928195        2.11312952797794       -0.09926811086566
C           -1.82687548990032       -0.21707095435349        0.13842938163048
O           -3.02547884682395       -0.41550671975174        0.15199485453042
N           -0.94343717466279       -1.31807429947681        0.23428085750021
C           -1.46965038890127       -2.56639066626227       -0.21668341099231
H            3.83043968484165        1.24703566300343        0.90676355482671
H            3.91938983386932        1.00046766041720       -0.85202215815837
H            2.67601126012320        2.07999010005691       -0.16391508329190
H            3.59213883220364       -1.66775294162999        0.20672252452863
H           -1.65540191939967        3.03684433090404       -0.12766308055216
H           -2.81077168342364        2.00039874366650       -1.01534813614991
H           -2.91237877665832        2.10746794356784        0.74913792043505
H           -0.87605894814342       -3.38262129582004        0.27241931047117
H           -1.46144842188907       -2.48378947688748       -1.63846969577369
H           -2.49675259561774       -2.64186043805700        0.17342565830839
H            1.38982223138188       -2.95676873533968        0.34805167782981
25
 energy: 17.432838847057 xtb: 6.6.1 (8d0f1dd)
C            3.24065334356309        1.16048778751474       -0.01223289421970
N            2.30768846628577        0.08626348197395        0.09622136055547
C            2.60901441508757       -1.25444801174181        0.20210010947019
N            1.43174628234672       -1.95089616736360        0.27854101802692
C            0.40299106387715       -1.08172628810457        0.21906722239655
C            0.91900485503844        0.20387325575050        0.11115921131338
C            0.10894976558576        1.35171895798349       -0.01094199139155
O            0.47493786122304        2.52363896461244       -0.14405360791530
N           -1.28150694937374        1.01962617246462        0.03057399619570
C           -2.22808364560258        2.11237170665267       -0.09883368791479
C           -1.82652842478898       -0.21640634197272        0.14185149749069
O           -3.02360108421337       -0.41250294206928        0.15344157505808
N           -0.94352080980422       -1.32332338047328        0.24532116266480
C           -1.47076425707464       -2.56311925327226       -0.21505313853070
H            3.83160213097786        1.24695191755617        0.90323440065742
H            3.91705571232412        0.99959774561810       -0.85488917355406
H            2.67559850876487        2.07899756584524       -0.16512051629898
H            3.58950762875751       -1.66547996934433        0.20611640205273
H           -1.65552917682467        3.03669737404401       -0.12705856474772
H           -2.80855978844894        1.99921563697518       -1.01528829000166
H           -2.91226342729805        2.10706072387560        0.74844938777964
H           -0.88374783593526       -3.38107045589659        0.24483824240398
H           -1.46288187712535       -2.48414987804104       -1.62650064907548
H           -2.49080569042387       -2.65010742195458        0.16518350453341
H            1.39125760101793       -2.95424257846055        0.35090731919824
25
 energy: 16.267040602064 xtb: 6.6.1 (8d0f1dd)
C            3.24066621756843        1.16043604637114       -0.00954491348995
N            2.30804357744602        0.08567539238277        0.09407004129760
C            2.60761833978887       -1.25271863903755        0.20144475949752
N            1.43175938842020       -1.94982855910292        0.27585116361877
C            0.40186678248555       -1.08002571592085        0.21587625764088
C            0.91905343476417        0.20494545866455        0.10696378533804
C            0.10887924210200        1.35319027183953       -0.01127455166756
O            0.47587789513074        2.52436232174472       -0.14554242155757
N           -1.28008285831488        1.02038990590703        0.02943072776760
C           -2.22737018591390        2.11319085458229       -0.09915814485532
C           -1.82668195350064       -0.21471453279035        0.13895428157211
O           -3.02347279434783       -0.41074237525057        0.14713757777335
N           -0.94398893445224       -1.32440778232347        0.24894466225776
C           -1.47179329678401       -2.56241332932723       -0.21153306354137
H            3.82834276064861        1.24605310560661        0.90783589569637
H            3.91956154552363        1.00023660934468       -0.84987997287464
H            2.67582368989765        2.07892170348955       -0.16330404285618
H            3.58763018397376       -1.66584867540359        0.20487293961844
H           -1.65531272671992        3.03799126288149       -0.12612718288088
H           -2.80721085232545        2.00119966687790       -1.01610924628301
H           -2.91210053762140        2.10639019056811        0.74764456916515
H           -0.87194018816377       -3.38499251287386        0.22845372551099
H           -1.46896446245385       -2.49041476169514       -1.61251488138237
H           -2.49328753829348       -2.65442155832996        0.17945058739886
H            1.38929793907795       -2.95342574603281        0.34509134338270
25
 energy: 15.409116521172 xtb: 6.6.1 (8d0f1dd)
C            3.24101421774628        1.16120439893768       -0.00949813866760
N            2.30851020766146        0.08616028274893        0.09186071052766
C            2.60840344985923       -1.25310512401078        0.20160841431907
N            1.43156999708007       -1.95024764984280        0.27553533804987
C            0.40237778144980       -1.07953687383170        0.21468231143992
C            0.91894706523635        0.20541025598564        0.10556307724179
C            0.10898654624266        1.35303525847787       -0.01147954825046
O            0.47584732634475        2.52513521747416       -0.14386038644519
N           -1.28017058539108        1.01998358046351        0.02927508952773
C           -2.22752172667560        2.11316662921451       -0.09842083303499
C           -1.82649562146029       -0.21458395114222        0.13770626018241
O           -3.02351557129695       -0.41213952923292        0.14315090847671
N           -0.94354083932882       -1.32390042798046        0.25037250924950
C           -1.47180953698262       -2.56370009094039       -0.21158828333005
H            3.82788849607836        1.24658158689230        0.90915538541683
H            3.92125899585936        1.00138554459193       -0.84941406999920
H            2.67573567700046        2.07936963251348       -0.16358977919678
H            3.58791743187961       -1.66694675721034        0.20349602875077
H           -1.65529176338196        3.03808554444581       -0.12495034001462
H           -2.80739194010445        2.00179792183932       -1.01553469072420
H           -2.91216552032617        2.10560527109177        0.74856615564334
H           -0.87534188531141       -3.38368117615506        0.22798095025348
H           -1.46718874616090       -2.49393427573217       -1.60404911961126
H           -2.49352478427673       -2.65210631998089        0.17732185996343
H            1.38771599619478       -2.95401034644509        0.34314408637912
25
 energy: 14.309116973309 xtb: 6.6.1 (8d0f1dd)
C            3.24126137169723        1.16191125315145       -0.00951062325738
N            2.30872136772480        0.08662884517457        0.08916189595628
C            2.60948416870659       -1.25381966615831        0.20286079924350
N            1.43115593874059       -1.95083334428006        0.27578669459887
C            0.40296267700625       -1.07934077485174        0.21286636476793
C            0.91863620740119        0.20554095487591        0.10450795041727
C            0.10911962008044        1.35275214000512       -0.01221361752702
O            0.47562297706078        2.52613570423777       -0.14131576730697
N           -1.28067435171430        1.01970649586897        0.02925168880435
C           -2.22781761016862        2.11344918545371       -0.09821488024989
C           -1.82637219412385       -0.21443756434983        0.13759448047751
O           -3.02365151861135       -0.41390622681682        0.14014931311947
N           -0.94321784031822       -1.32285532012807        0.25197104565511
C           -1.47197688375252       -2.56532758682314       -0.21289618575471
H            3.82735915763389        1.24689973543361        0.91045229928077
H            3.92308194700403        1.00246338819511       -0.84894946424188
H            2.67580003801146        2.07982192414604       -0.16387919830849
H            3.58844937709730       -1.66816636408178        0.20129343600816
H           -1.65521978766161        3.03828808715434       -0.12476703628725
H           -2.80782289089889        2.00215095865293       -1.01538736614846
H           -2.91217114486606        2.10567985130530        0.74910481183040
H           -0.87691293880361       -3.38523209020820        0.22573194698123
H           -1.46587244242610       -2.49363521792436       -1.59267568197627
H           -2.49367525987513       -2.65014480490715        0.17458980146277
H            1.38594468299190       -2.95470096095327        0.34152118860200
25
 energy: 13.091073955902 xtb: 6.6.1 (8d0f1dd)
C            3.24129174814842        1.16224518781505       -0.00947580686863
N            2.30870591126441        0.08681585805394        0.08717378614774
C            2.61050019391273       -1.25420797176106        0.20561388233007
N            1.43111021613534       -1.95118893027690        0.27672152751708
C            0.40355377113533       -1.07967591973539        0.21040002343451
C            0.91850666331963        0.20522255034445        0.10393249555561
C            0.10928731714188        1.35227767034348       -0.01305165641408
O            0.47528199897527        2.52653061864020       -0.13912576564700
N           -1.28113010006426        1.01937569494887        0.02913842014380
C           -2.22808460037341        2.11333619629891       -0.09803093468356
C           -1.82607614129018       -0.21470591628226        0.13717474239628
O           -3.02350294954522       -0.41539340938151        0.13915196385065
N           -0.94276677062725       -1.32212548848935        0.25098013944205
C           -1.47201040820469       -2.56624712213062       -0.21723892364826
H            3.82714256154076        1.24683917008884        0.91102075012798
H            3.92388338988042        1.00308931952834       -0.84876470495275
H            2.67585252510309        2.08006457486043       -0.16382759958948
H            3.58910924348840       -1.66873514603847        0.19937290746593
H           -1.65515978681957        3.03792494464346       -0.12445287180882
H           -2.80812342675349        2.00207587654882       -1.01519592644804
H           -2.91226757644533        2.10554131100321        0.74939726080326
H           -0.87703572293812       -3.38371551364952        0.22211912593212
H           -1.46764187956580       -2.49144272869545       -1.58117752265862
H           -2.49356946000464       -2.64977286188121        0.17388519006097
H            1.38535795052246       -2.95509936262418        0.34129339365847
25
 energy: 11.509412473004 xtb: 6.6.1 (8d0f1dd)
C            3.24117508390504        1.16223144693064       -0.00954941776461
N            2.30842180305736        0.08680594930252        0.08618369379363
C            2.61113236067841       -1.25398600763673        0.21000165842696
N            1.43120012435668       -1.95114774647909        0.27818595751366
C            0.40378592826607       -1.08035290916862        0.20913034612152
C            0.91859576558745        0.20475446509758        0.10430644050117
C            0.10945555738019        1.35204216482590       -0.01346247683663
O            0.47509285846335        2.52654053397111       -0.13877858546926
N           -1.28139339954679        1.01944758996754        0.02943888878179
C           -2.22820542265236        2.11331020802074       -0.09815136802539
C           -1.82569695121634       -0.21517690037801        0.13804907852649
O           -3.02315544012847       -0.41593474711625        0.14074510143631
N           -0.94244610982671       -1.32168125324199        0.24936848360780
C           -1.47212998822897       -2.56696339467928       -0.22468313125322
H            3.82729736778537        1.24655953211743        0.91064136329275
H            3.92358247778737        1.00318229351983       -0.84906078943630
H            2.67594678480986        2.08014767595288       -0.16369496994581
H            3.58954522299496       -1.66861716007378        0.19668490917983
H           -1.65519825864463        3.03772553382034       -0.12488592019869
H           -2.80830048316572        2.00156823080032       -1.01518693963304
H           -2.91229492575163        2.10602159899716        0.74930606908206
H           -0.87648861604537       -3.38484749276806        0.21627631722104
H           -1.47142816847050       -2.48700048613459       -1.56710980823042
H           -2.49212810542872       -2.65053711637831        0.17125393612411
H            1.38584920197028       -2.95506340709717        0.34202505933154
25
 energy: 11.057390530265 xtb: 6.6.1 (8d0f1dd)
C            3.24106352915979        1.16179973105211       -0.00962779866534
N            2.30820158295370        0.08658645121259        0.08746051960241
C            2.61078650413775       -1.25345474065599        0.21220830106007
N            1.43131997853134       -1.95080230140886        0.27855275750293
C            0.40350140524311       -1.08068929503682        0.20968129214526
C            0.91886011107506        0.20459670233232        0.10495693054867
C            0.10941420777992        1.35201296734950       -0.01306306569747
O            0.47503271250310        2.52577017298288       -0.14019357743520
N           -1.28125966872222        1.01958849178772        0.02953990823988
C           -2.22809532130137        2.11306168284633       -0.09803437174629
C           -1.82555957120756       -0.21564551214958        0.13789270890407
O           -3.02296140027892       -0.41515023607983        0.14283475378184
N           -0.94250078850225       -1.32202429454678        0.24689714011718
C           -1.47187643967706       -2.56645392743175       -0.22947840160342
H            3.82795444886414        1.24630139074240        0.90956551378338
H            3.92228649489599        1.00262272365584       -0.84969570315862
H            2.67595714650633        2.07991779903017       -0.16348210817129
H            3.58927536203077       -1.66810191298689        0.19615468451955
H           -1.65523825445736        3.03748408991300       -0.12478544770901
H           -2.80812293302764        2.00131907030230       -1.01504597623501
H           -2.91237590128657        2.10597357064827        0.74921713629326
H           -0.87573306741690       -3.38372790346226        0.21483733847364
H           -1.47403364385494       -2.48477000364769       -1.56426081061803
H           -2.49075784910318       -2.65248371816435        0.17131989723908
H            1.38707602309117       -2.95470239611253        0.34358227497569
25
 energy: 11.136888695230 xtb: 6.6.1 (8d0f1dd)
C            3.24103560192387        1.16148996839643       -0.00969178226483
N            2.30819958220760        0.08643863546691        0.08918774566849
C            2.61017972294463       -1.25301177457992        0.21245233340163
N            1.43131234678786       -1.95051902480532        0.27793074423303
C            0.40308408488126       -1.08055089264127        0.21125127545031
C            0.91907676956087        0.20476184330103        0.10542139318971
C            0.10929960503258        1.35227084736493       -0.01240735916498
O            0.47511888319166        2.52525427318700       -0.14219373677019
N           -1.28096095011761        1.01979336229706        0.02979434946745
C           -2.22791911446219        2.11299308655612       -0.09795247018364
C           -1.82557219548241       -0.21583207680695        0.13809545524271
O           -3.02291055370819       -0.41416877836923        0.14403469461439
N           -0.94276058052424       -1.32254171176541        0.24614279232493
C           -1.47178323933585       -2.56586225830065       -0.23096192184979
H            3.82843322899369        1.24630407365329        0.90879116021855
H            3.92133870534871        1.00214052049934       -0.85012012179304
H            2.67591439556224        2.07972126264801       -0.16341222760838
H            3.58877321573981       -1.66780652322257        0.19633135545146
H           -1.65532009533067        3.03760129803361       -0.12486030511998
H           -2.80792870523233        2.00123055825543       -1.01498481881631
H           -2.91236092382356        2.10601417697174        0.74917560089949
H           -0.87550842764849       -3.38425403738206        0.21534359173521
H           -1.47466595697123       -2.48469556058655       -1.56593836914250
H           -2.48972172459953       -2.65337320250422        0.17106719349704
H            1.38786099299772       -2.95436946349465        0.34453732346650
25
 energy: 11.049507642796 xtb: 6.6.1 (8d0f1dd)
C            3.24108966902631        1.16149437263538       -0.00971405570088
N            2.30834577806557        0.08647466645569        0.08990870260477
C            2.60999659068835       -1.25298304483770        0.21223860543260
N            1.43115291896145       -1.95054918767031        0.27713617023117
C            0.40294872498552       -1.08019992411707        0.21154668081865
C            0.91910782469452        0.20495588171030        0.10525438023479
C            0.10923391305131        1.35242776708563       -0.01214483138550
O            0.47514575064502        2.52522282587197       -0.14257901226767
N           -1.28082946650776        1.01982335130612        0.02991887757777
C           -2.22786954531718        2.11299607285927       -0.09768781204198
C           -1.82559503538799       -0.21579887174006        0.13770741262873
O           -3.02297833930116       -0.41392888394298        0.14350614471187
N           -0.94290572954101       -1.32268270081072        0.24580038866529
C           -1.47176658600654       -2.56570804051149       -0.23156957039228
H            3.82866913665019        1.24646279121236        0.90868490201138
H            3.92121656671332        1.00209371070436       -0.85026275166617
H            2.67585570591163        2.07969288644123       -0.16340475093062
H            3.58853925034415       -1.66804357970136        0.19638503148573
H           -1.65532200791137        3.03767657611630       -0.12456260169589
H           -2.80786668655728        2.00138355169941       -1.01478665157542
H           -2.91236163123297        2.10587780601804        0.74940980510490
H           -0.87579291094828       -3.38380180355343        0.21580168725864
H           -1.47394782884825       -2.48593141859621       -1.56544667923409
H           -2.48955116740822       -2.65359937944210        0.17104464165910
H            1.38769977316685       -2.95432682302055        0.34484918261237
