25
 energy: -42.462319238278 xtb: 6.6.1 (8d0f1dd)
C            3.23071002231599        1.14905084990144       -0.00161754401781
N            2.29452088009969        0.05975886632304        0.09145423864361
C            2.57806972666840       -1.23152110812767        0.18991370683330
N            1.44904688375448       -1.95178452614260        0.28451190804294
C            0.37296068294943       -1.08794301403032        0.22502939497820
C            0.91679789806998        0.20719420454822        0.10385758426908
C            0.10571928776973        1.35814782034612       -0.02633873076145
O            0.48712759385517        2.52167718284114       -0.14006419440509
N           -1.26288049212577        1.01669884134936       -0.00076172975932
C           -2.21806729943370        2.10930015791002       -0.12445608212442
C           -1.82596018505715       -0.22377950319313        0.12030933445767
O           -3.01764563289639       -0.40734084737889        0.14202909827271
N           -0.93833856749047       -1.34474992587941        0.27269426314224
C           -1.48724312814563       -2.57483769768423        0.38024833744080
H            3.80279374683679        1.23522009187998        0.92275674546238
H            3.92261778226995        0.99425512299186       -0.82979412922885
H            2.66643858182333        2.06792548973896       -0.16377363414682
H            3.56855212159183       -1.64336932947616        0.21107450050346
H           -1.65319825337808        3.03844466491306       -0.14540121657674
H           -2.79915818206986        1.99932299251345       -1.03942016331251
H           -2.90141039657449        2.09757204370373        0.72453582644733
H           -0.85070450483217       -3.43036257881031        0.47333724776504
H           -1.36042251723229       -2.36832395045588       -2.49291787049118
H           -2.54905217879145       -2.66012874835690        0.33589294193611
H            1.38501675811016       -2.95721693617939        0.31882155758268
