25
 energy: -42.151786512858 gnorm: 0.009599280514 xtb: 6.6.1 (8d0f1dd)
C            3.24185322347290        0.98629277671660        0.04460433154658
N            3.40685114595473       -0.36477515142485        0.02253931573099
C            2.66716583224313       -1.36965210140706       -0.00164239848349
N            1.28491821007736       -1.52861465791321       -0.01532997352254
C            0.18534704553852       -0.71970010305090       -0.00606833102346
C           -0.04213327583599        0.67828603554678       -0.01531480818402
C            0.77475171368604        1.78570219127790       -0.02638543767161
O            0.73821329480642        2.96740183450608       -0.03918278291742
N           -1.43687251086935        0.86249230715949       -0.01013695487416
C           -2.17173720152696        2.10059005849295       -0.01170435317222
C           -2.06446780641226       -0.34837528471193       -0.00057869543576
O           -3.23684494516124       -0.58527409558195        0.00789805376108
N           -1.03213792181359       -1.31257119894922       -0.00132493467003
C           -1.34184585018304       -2.71886297360655        0.00363590118158
H            3.66078471866800        1.41998657789484        0.95601788015227
H            3.70485490663757        1.45325138238443       -0.82847510124968
H            2.10536832016716        1.32384002481481        0.02027663221481
H            3.17186584834870       -2.32761048898782       -0.01486859768379
H           -1.49587820301262        2.95077383461169        0.02053997359803
H           -2.78542581998176        2.15961634511751       -0.91206100570442
H           -2.83339210124568        2.12808201812195        0.85515451478498
H           -0.95298212592592       -3.20972150530636        0.89743595231933
H           -0.97086766237680       -3.21259346947440       -0.89631500054223
H           -2.43053892199188       -2.79366646783665        0.01388148124622
H            1.01358160083641       -2.50665934679386       -0.03142404350099
