25
 energy: -42.093848335100 gnorm: 0.007397439201 xtb: 6.6.1 (8d0f1dd)
C            3.00998571701471        0.38191998470021        0.28251843155552
N            1.92776828997115       -0.31309781772177       -0.06479599443921
C            4.22261375399725        0.21803883213934       -0.28821800544190
N            0.71171532710997       -2.75129890272654        0.15057251103507
C           -0.46150445117382       -0.83772149489270        0.01197697857422
C            0.67746601604550        0.02821221464467       -0.01575540652557
C            0.13933643986803        1.37269764239480       -0.07231598213173
O            0.78814805564203        2.50875442042125       -0.18375405415469
N           -1.19053189761724        1.33497511614689       -0.04291411822499
C           -2.07899857646701        2.46513782924833       -0.09079945873734
C           -1.65630527752398       -0.01047547811288        0.02419971315048
O           -2.82891425064601       -0.28503992505746        0.09524585785823
N           -0.41011075924800       -2.18616025269001        0.10020321099408
C           -1.65225389532276       -2.93888699849417        0.10837310819274
H            2.92088366588239        1.05696158371243        1.14113954397148
H            5.07090425024974        0.77402816332132        0.07749952874348
H            1.74949971844562        2.38970932046552       -0.26045641244399
H            4.37839699496511       -0.44087120410328       -1.12580832423580
H           -1.57851382927016        3.33782567509087        0.32292714490291
H           -2.37255943935657        2.67135434042036       -1.12163924515227
H           -2.97242222559792        2.22256366888604        0.48333666632336
H           -1.54373778449390       -3.81815574801702        0.74349532813637
H           -1.87999322653521       -3.26916536904751       -0.90775136443754
H           -2.48073616658753       -2.32614970644240        0.45886254930527
H            0.67029506475255       -3.76691735269261        0.20502941108350
