25
 energy: 13.353758822497 xtb: 6.6.1 (8d0f1dd)
C            3.26560132041167        1.16818095712054        0.09955786071827
N            2.28707353331752        0.11126223910433        0.06399655783997
C            2.58755407750631       -1.23756672963310        0.09138740365870
N            1.39996822007697       -1.93975714700808        0.02457958525455
C            0.33356160762290       -1.07854848148724       -0.02989993633245
C            0.88291431515324        0.19511405412383        0.00376940008200
C            0.04447650217214        1.31332916675680       -0.08067454677201
O            0.43343136041325        2.48361504541072       -0.04806771904381
N           -1.42827276998489        1.02334551477246       -0.16719087504283
C           -2.22374553080367        2.20942523267273        0.04030176432251
C           -2.07070026049851       -0.15071280599312       -0.42596823105938
O           -3.23109627728496       -0.40794049263431       -0.57433101532276
N           -1.04242702542275       -1.27551181552441       -0.12684805297871
C           -1.43455742715319       -2.66568489085079       -0.03457517118316
H            3.76959542664515        1.21348710065994        1.07214563059918
H            4.04150806113529        1.02081908745460       -0.66312995683007
H            2.74749363926801        2.10949433376113       -0.07561710126427
H            3.58647637847094       -1.62973951372515        0.06345305626469
H           -1.63788934681691        3.09251811469227       -0.25097041043682
H           -3.08671802986970        2.04649223233167       -0.58707328299049
H           -2.59039599635909        2.30017796979606        1.07220143553741
H           -1.03891086958926       -3.16660565425526        0.86236289821026
H           -1.09152088627339       -3.21774706545143       -0.91564756427039
H           -2.51795920296434       -2.67916988869405        0.00002714245651
H            1.41345917244188       -2.94626147931390        0.04698623201135
