25
 energy: 111.202568929198 xtb: 6.6.1 (8d0f1dd)
C            3.31037967756188        1.15236829834784        0.11538708037759
N            2.35774787445341        0.06343050170997        0.07245084495320
C            2.70892598907164       -1.21609349578174        0.06723755241354
N            1.60890044915443       -1.98913599470886        0.07577257228935
C            0.45200110806777       -1.16093173054275        0.06883551433877
C            0.98543204925918        0.16993467222689        0.08516577404672
C            0.17853941493246        1.40394862304984        0.04894829053221
O            0.71208484182263        2.51013704283751       -0.08838203303021
N           -1.17393086152134        1.12476164940087        0.13923975026573
C           -2.05599661251475        2.25566952500537        0.16211809265770
C           -3.53903888324473        0.52141694932200       -1.27385492615405
O           -4.07302595717785       -0.41737174223083       -0.93393765312441
N           -0.77878177272982       -1.48150681853881        0.04172394774794
C           -1.29674187565111       -2.80342532113557        0.03591376263420
H            3.80427934457109        1.18694659315555        1.09069606661185
H            4.07156769644450        1.02024697705732       -0.65620345314592
H            2.78249427561330        2.09423811029352       -0.04620854121709
H            3.72254437905805       -1.57412524448355        0.07396297115438
H           -1.75352218437761        3.11410418258960       -0.45916655669020
H           -3.08775388737368        2.02362550336149       -0.17803516669645
H           -2.04959297266206        2.59500761779165        1.19287097553862
H           -0.92063946054873       -3.36590226064009        0.89460385847684
H           -1.02410291349434       -3.33740047887470       -0.88228017021733
H           -2.38657635489976       -2.71537580407233        0.07990335970598
H            1.60520157022395       -2.99301259119787        0.04929214633157
