25
 energy: 87.799732503137 xtb: 6.6.1 (8d0f1dd)
C            3.28115172111517        1.14707753249883        0.12835856419211
N            2.32281442635165        0.08684411921392        0.05998052917303
C            2.65149628284437       -1.21049667459438        0.09442683842922
N            1.52696866348538       -1.97713931658070        0.04793072213666
C            0.38588556304965       -1.15546312269245        0.03170575990701
C            0.92719306251549        0.16708443709796        0.04491353390258
C            0.21300657814227        1.32333887400094        0.02237584042105
O            0.53895005655508        2.48480694668479       -0.07106654600564
N           -1.71677676282526        0.98358208870287       -0.13944893616380
C           -2.21337372813931        2.32629152073889        0.17283557190806
C           -2.71771700259487        0.40483684358367       -0.68672283620891
O           -3.53586159762789       -0.34272004934682       -1.07696941583575
N           -0.86243956239188       -1.40148042331678       -0.00423497869012
C           -1.32167367796974       -2.75234653936316        0.02614241445100
H            3.78789090026580        1.16522515913437        1.09657463943718
H            4.03994918759209        0.99421985351792       -0.64033816263664
H            2.78987850858758        2.10483124853275       -0.03794832994506
H            3.65302419640382       -1.58102556653670        0.08398457274588
H           -1.77266948483098        3.09698352100757       -0.44996779561342
H           -3.25247415443849        2.16986479701995       -0.05500391136187
H           -2.14861629595064        2.53865043947078        1.23337469298811
H           -0.89254209109775       -3.25249995724948        0.89675438879321
H           -1.02327207467015       -3.29050379754373       -0.87609339936512
H           -2.41131123680176       -2.78155535848858        0.10229674493443
H            1.53875244881654       -2.97643325771160        0.05731660336462
