25
 energy: 103.558904637736 xtb: 6.6.1 (8d0f1dd)
C            3.32268282430856        1.16782826617668        0.08432867548527
N            2.37106279211901        0.08170491620986        0.06258143624228
C            2.71374263221100       -1.19893435483252        0.04991295800080
N            1.60394835194381       -1.96557638826992        0.04402477125664
C            0.45673555131132       -1.11649646705065        0.06745365165008
C            1.01343175314964        0.19575549544951        0.06955626866855
C            0.24977116946060        1.44769495829771        0.04751395316075
O            0.80152399629742        2.55713315803415       -0.06327106931259
N           -1.02884116586629        1.20339478221376        0.28007587959246
C           -2.01192527405710        2.22172009592622        0.19988870988103
C           -4.10061638357798        0.38170121182087       -1.12512780073355
O           -4.14929658971130       -0.73457993725025       -0.95851309836801
N           -0.77553117697554       -1.43064851216585        0.08702667810138
C           -1.27810902293828       -2.77247479552099        0.07042323736863
H            3.82006564222015        1.21014379095526        1.05482718726838
H            4.07605377453492        1.02810007986930       -0.69118937494919
H            2.77688038691227        2.09883676468212       -0.08168667018100
H            3.71777916535403       -1.57291310727641        0.03951094861691
H           -1.67682878374912        3.11970655881153       -0.33672672447886
H           -2.88736085057628        1.77878456751637       -0.29811818772181
H           -2.34561700414824        2.49843462344186        1.20626110202852
H           -0.92210926765347       -3.37242502893075        0.92227932284872
H           -1.01365504469244       -3.29949197787285       -0.85537416030464
H           -2.37046213743962       -2.71234425994357        0.11871422979276
H            1.58513635856824       -2.97131998063335        0.03902595796170
