72
 energy: 1.058329451725 xtb: 6.6.1 (8d0f1dd)
N           -1.52313281142888        2.54194969933044        1.84692261718965
C           -1.68114492803934        2.40832986278184        0.60492297512606
C           -3.02034346846584        2.22876449774785       -0.06970634863491
C           -3.46994223019855        0.78303735921446        0.08086834846334
C           -4.60147259841510        0.36374702415597       -0.62170888430397
C           -5.07510200566558       -0.92914023378467       -0.51834302709656
O           -6.15321090502904       -1.43826359508900       -1.18296848793069
C           -6.85433973859539       -0.61659022862380       -2.07741325289054
C           -4.41404990963201       -1.84734283858179        0.32675781479436
O           -4.96519430646781       -3.09759668599676        0.38563904619365
C           -4.42121098875675       -4.03474756947080        1.27948656895062
C           -3.30104641930820       -1.42862112659543        1.02981950748967
C           -2.83062419185957       -0.12529928742551        0.90605215372761
C           -2.72392642977071        2.50452055883178       -1.56643005489267
C           -1.27311656970815        2.15285749866997       -1.80104146251497
C           -0.69160509145842        2.60867186518563       -0.47725242779639
N            0.74195096467813       -0.67224617161360        0.30246788083204
C            2.12136742357693       -0.63666781777021        0.47417629232752
C            2.98799909626497       -1.07127419849937       -0.71024529398434
C            4.44112588059168       -0.83146369448044       -0.42318856252403
C            5.02623010164920        0.38486428955584       -0.73575155090189
C            6.37158180723319        0.62217699390074       -0.48768291525068
C            7.16510566818784       -0.35739266986296        0.07629111193353
O            8.49435662937217       -0.24074600004941        0.35657284718614
C            9.15079346241006        0.96078439642560        0.03553476549584
C            6.58040227525124       -1.60647710498652        0.38639840715354
O            7.43699434909117       -2.51312052384996        0.93145474633087
C            6.96367964929405       -3.79292056823960        1.26152018319369
C            5.24032368012432       -1.82638843405072        0.12885246812324
C            0.14236909424868       -1.41749590920443       -0.72743728815521
C           -4.12283604996209        3.14505474628424        0.53699516882917
C           -4.55263004000260        2.63763638378438        1.91722043834764
C           -3.69915522327813        4.60968149939486        0.66537524702206
H           -5.11289983868471        1.05922202449279       -1.26226386200271
H           -7.29983025669091        0.24347974797539       -1.56766126210601
H           -7.64821862309078       -1.24282682785085       -2.48369846933222
H           -6.22064145036023       -0.26342717888583       -2.89867186872590
H           -4.46828312179831       -3.68090576222953        2.31517381425504
H           -5.03497901719759       -4.92771187626834        1.17721286804597
H           -3.38645723113510       -4.29055261661057        1.03186828365106
H           -2.79073517830026       -2.10846656935019        1.69724413429685
H           -1.96858968871951        0.16590767983601        1.48443639134212
H           -3.36619062103838        1.94545287708520       -2.22334290649120
H           -2.80456274089394        3.55369303963148       -1.77766507131808
H           -1.18679921919749        1.09271230097007       -2.05328315054109
H           -0.77438841583887        2.73716047375986       -2.56525430111854
H           -0.80276258250879        3.72315687156231       -0.34325489155505
H            0.33211501530749        2.32450642215436       -0.29802267191552
H            2.32188351797798       -1.32980206697734        1.32573789189138
H            2.42524958569609        0.38195472090363        0.81467838265411
H            2.73263907061320       -0.53632111288019       -1.64681259264404
H            2.80037266931293       -2.13865834822426       -0.83725960217219
H            4.43970702255659        1.16857186967802       -1.19370900180384
H            6.79023924280187        1.58173419562889       -0.74012260840179
H            8.74232864351039        1.80948413573904        0.59483356483082
H            9.09997444072256        1.17664141861237       -1.03877229497704
H           10.19072248327203        0.81220650994257        0.32584518821775
H            7.82709907766874       -4.32171559821735        1.66921434799696
H            6.17566479754271       -3.75348333308087        2.02003392061670
H            6.59872840265924       -4.32892909728109        0.37932391214517
H            4.79178397036749       -2.78214124967331        0.33996702100277
H            0.31837360249116       -1.01417514768400       -1.74789889287244
H           -0.94798729203552       -1.41461273612229       -0.58363128096541
H            0.52517468579138       -2.45068341289840       -0.73647145112752
H           -4.99285450765947        3.10438010835322       -0.13262590425340
H           -3.67977761109057        2.53106137646721        2.55249327521850
H           -5.05835640905207        1.67749759122857        1.85249887097582
H           -5.23447327656007        3.34552514987467        2.38817358686096
H           -2.90375142415519        4.70464508378057        1.39960344391971
H           -3.35413766701483        5.01435799932985       -0.28444472652944
H           -4.54176914103983        5.21250781401243        1.00529107923390
H           -0.55381200537608        2.64566021976963        2.15663757130385
