72
 energy: 1.711596319542 xtb: 6.6.1 (8d0f1dd)
N           -1.60200766263002        2.76119943893908        2.22222449674739
C           -1.61953512808856        2.31453085210305        1.05117248252373
C           -2.81085390767415        2.10191686784791        0.19214291541719
C           -3.34408107014279        0.67747005427847        0.28782941421796
C           -4.35440900069128        0.26657590037576       -0.58512133837511
C           -4.88832210679286       -1.00674295188425       -0.53029423254370
O           -5.87633136915888       -1.48463968429630       -1.33944994876197
C           -6.47395511538100       -0.61138925687914       -2.26123968123402
C           -4.40281436798823       -1.92667344574329        0.42420384064026
O           -4.99033274236013       -3.15719827753153        0.40143863790146
C           -4.62359334314346       -4.08992692307714        1.38674605610360
C           -3.40346403121960       -1.52057165873234        1.28724966196853
C           -2.88117789169311       -0.23252538575995        1.21891842627570
C           -2.27801586021412        2.35023666731849       -1.23718328941527
C           -1.19241139380055        1.34021454782409       -1.68518163099829
C            0.03759296841182        1.26518969216713       -0.77823756036335
N            0.60874122281087       -0.00577533020311       -0.38716071210141
C            2.00619872955510       -0.11623669107071       -0.04806698481784
C            2.93634730990538       -0.63015097858599       -1.18600476509496
C            4.37282282350425       -0.50492906145615       -0.77748311236290
C            5.06996379186387        0.66924859567649       -0.99710050319802
C            6.38698300441748        0.80527939103668       -0.58356599329833
C            7.02839403381089       -0.23434664531019        0.06300566629047
O            8.31706579574232       -0.21636979990349        0.50781073600329
C            9.08634096046038        0.93516963817954        0.27420817587179
C            6.32450479470356       -1.43563058903971        0.29806388305282
O            7.03493762979131       -2.40575898564843        0.93781729254213
C            6.42351979956562       -3.64627823000738        1.17344309584596
C            5.01363945151554       -1.55261358906729       -0.12061242713149
C           -0.03079956422755       -1.27839675960789       -0.67444800158893
C           -3.93322959178320        3.09357981253540        0.57261619941549
C           -4.51974615489609        2.75629632585087        1.94262780800054
C           -3.45246405520282        4.54327532708609        0.56623861173938
H           -4.73527774656725        0.96356899423340       -1.31305632524853
H           -6.92425644755763        0.25502624062743       -1.76450009823500
H           -7.25579666437405       -1.19325306551591       -2.74730885480757
H           -5.75962363313775       -0.26710989331060       -3.01663259287605
H           -4.81433137168749       -3.70883859100192        2.39600777870080
H           -5.24794070974894       -4.96423675801929        1.20882650820201
H           -3.57040735917718       -4.37886173988559        1.30356057227822
H           -3.02050299669130       -2.19971650948884        2.03404535941309
H           -2.11440628083671        0.05013110372341        1.92295616833066
H           -3.10726598124972        2.31779396424634       -1.94582448734901
H           -1.84886657296058        3.35102896427676       -1.28354713012623
H           -1.67338768620715        0.36983871519638       -1.73229774584821
H           -0.96061700312361        1.63147926357657       -2.72786475764581
H           -0.69333529791412        2.03745223180989        0.48075558928164
H            0.75037570141496        2.09000816872097       -0.80651893714108
H            2.13058008248910       -0.78912837740541        0.82182231531837
H            2.34295241365117        0.88309306057936        0.23183558645405
H            2.75424056536803       -0.02960559990456       -2.08144374491476
H            2.70176296424192       -1.67406213373121       -1.40649882899971
H            4.59055515897830        1.49427984211023       -1.50324332428370
H            6.90409219227127        1.73065547914897       -0.77587514537087
H            8.66544761649222        1.81154757194690        0.77918081477400
H            9.18532256584869        1.14804144135753       -0.79608056640396
H           10.06840539151513        0.71763702309123        0.69159966481173
H            7.18255535183731       -4.25749585036774        1.66088956300966
H            5.55864242541431       -3.54981980379817        1.83743755039058
H            6.11651197780688       -4.13111144627762        0.24063313307755
H            4.46669121427043       -2.46623782594485        0.05042020305860
H           -0.12826061035976       -1.49536054120246       -1.74299571661546
H           -1.02349030435881       -1.29907645549379       -0.21217420641690
H            0.54566584806319       -2.10276653131903       -0.23695115080667
H           -4.71551383954712        2.98546196836033       -0.18260221367135
H           -3.74449059255304        2.84630919801729        2.69763258141907
H           -4.90935804963830        1.74171159484211        1.96052138330247
H           -5.32738918804419        3.44572009998702        2.17746231518466
H           -2.65484990093600        4.67668745295001        1.29085872137522
H           -3.09603095023038        4.84623821472941       -0.41442680811547
H           -4.27631404874864        5.19741654587294        0.84016587468938
H           -0.65139955858516        2.78881882663975        2.61567161463623
