72
 energy: 42.144060936802 xtb: 6.6.1 (8d0f1dd)
N           -1.52883513393660        2.44973383350091        2.03027760728789
C           -1.64974150725171        2.55927193101062        0.78020288040040
C           -2.90744796082051        2.17292791924964        0.07417480005184
C           -3.39745491128386        0.73156447398786        0.20976844174429
C           -4.45579374641661        0.30704184554971       -0.60056261473336
C           -4.96618892869934       -0.97576979755121       -0.52785942658311
O           -5.99108312739077       -1.47167729164092       -1.28593884949709
C           -6.62944348887477       -0.61422385884452       -2.19270626302940
C           -4.40850664545971       -1.89322878447915        0.38603369226120
O           -4.97747797949039       -3.13333572456622        0.38996610462557
C           -4.54131496190851       -4.07007544877617        1.34385258834998
C           -3.36131516534793       -1.47912965802589        1.18656596629850
C           -2.86327273916596       -0.18215438553561        1.09785269270711
C           -2.46029380018305        2.42942495562266       -1.36794672296424
C           -1.14961863121630        1.63654559287163       -1.68858149463537
C           -0.17440228998794        1.40495575626624       -0.49906012500242
N            0.51464833662400       -0.03114062354095       -0.11071430222801
C            1.97299525258187       -0.27321229198040        0.18615028896985
C            2.92633006579960       -0.80068964963539       -0.97746402729957
C            4.38876863717967       -0.63815125491493       -0.63378599612151
C            5.05166221278918        0.54942989104333       -0.89814242090227
C            6.38348266129714        0.72928840809239       -0.54867895554668
C            7.08823980314392       -0.28517019060978        0.06927973790322
O            8.39549230690528       -0.22639018093450        0.45930001327070
C            9.11894176215750        0.94686025666526        0.18226469364362
C            6.42937851344898       -1.50598592575238        0.33087413127798
O            7.19671412231762       -2.45071579425941        0.94260039298065
C            6.63864198704846       -3.70908960366906        1.21173968181778
C            5.10379001495231       -1.66633956628039       -0.02707755777483
C           -0.00217195621671       -1.22849396330865       -0.77084136293229
C           -4.03290545899612        3.12000751512548        0.55786729781090
C           -4.55221088274263        2.71363376176071        1.93967574746724
C           -3.55991686081032        4.57201621933733        0.60363995915109
H           -4.88884223951881        1.00093019252401       -1.30145211679126
H           -7.07480199685558        0.24969635855359       -1.68690551229947
H           -7.41927618018304       -1.20890753868438       -2.65067445008097
H           -5.94464504880928       -0.26390960169269       -2.97233577143667
H           -4.67532421248502       -3.69999619279082        2.36665515179080
H           -5.16089079495107       -4.95458031387167        1.19923971803913
H           -3.49160087580722       -4.34441451251816        1.19732589824612
H           -2.92304468218522       -2.16223441343306        1.90128082272109
H           -2.05414499932497        0.10437786390747        1.74972349823728
H           -3.24542642343685        2.16809798612548       -2.07801875159059
H           -2.25012769431742        3.49832898736132       -1.47624539757555
H           -1.46365961429768        0.65906096611152       -2.01258171664400
H           -0.78624741888425        2.13624183317302       -2.61556936036425
H           -0.85823038660616        2.95864420915034        0.15403999135856
H            0.62942694876526        2.12526765893989       -0.35537207471107
H            2.04977007262792       -1.02095186466482        1.02713402165327
H            2.39854075423793        0.68762583085775        0.48684328742226
H            2.73480359920884       -0.23091148884029       -1.89879582717279
H            2.73444294516522       -1.86135249311207       -1.17259019109865
H            4.52785834628643        1.36008311570251       -1.38423454274237
H            6.85944039740498        1.67177823139461       -0.75939030920114
H            8.69677542831819        1.81180661337065        0.70564295217509
H            9.15608845727896        1.16017540056034       -0.89289901189290
H           10.12793554033810        0.76357495824203        0.55107798198701
H            7.43824680914004       -4.29343034278132        1.66985661931819
H            5.80201202622289       -3.63490878547216        1.91224421627765
H            6.30925520516830       -4.20954356890480        0.29539049974362
H            4.59610758119253       -2.59739315837967        0.16411325894318
H            0.04835380689016       -1.22875743889263       -1.86081728641498
H           -1.03049073327150       -1.37452512868701       -0.42591167680798
H            0.53733417250018       -2.14823200799613       -0.48192689201802
H           -4.84277564634437        3.03678458990762       -0.17020587512183
H           -3.72044710778710        2.71960753490760        2.64054893528306
H           -4.97709749388366        1.71453639770828        1.92508676327593
H           -5.31461922980929        3.41522885140076        2.27938573413019
H           -2.75715165777597        4.67715376341044        1.32707622161719
H           -3.20648069077395        4.90964850333078       -0.36703091340688
H           -4.38079482126981        5.21766084585519        0.90788513384486
H           -0.64258869741495        2.78605786859527        2.39675771939209
