72
 energy: -8.428048257610 xtb: 6.6.1 (8d0f1dd)
N           -1.53037435269613        2.48925906152400        1.81036337080770
C           -1.69341193092138        2.42144642633206        0.56747974336037
C           -3.04781863656997        2.23178239483884       -0.08183478699901
C           -3.48428782085882        0.78140911291802        0.06022175958445
C           -4.61769632688535        0.35659235686769       -0.63431490979543
C           -5.08613810225803       -0.93744069959674       -0.52338850009509
O           -6.18140936539199       -1.43862725237392       -1.16491038382360
C           -6.90046493785875       -0.61867823544253       -2.04885403715396
C           -4.41657313070808       -1.85044748003608        0.32065482296195
O           -4.96469009329331       -3.10135421936415        0.38196744775485
C           -4.40113278751159       -4.03162337110104        1.26879281051351
C           -3.29019930581653       -1.42647353076691        1.00176726091804
C           -2.82431504077904       -0.12303694096610        0.87190198950615
C           -2.78041364250928        2.54445798277858       -1.57731925017932
C           -1.31243925296883        2.22380270471538       -1.79045153597983
C           -0.69465999808667        2.72093059438755       -0.49314444904764
N            0.76981441361433       -0.80919098450235        0.39461248970364
C            2.16407791924495       -0.72692391305382        0.49634108305584
C            3.02027744889144       -1.13387999438890       -0.70510538979225
C            4.46365210274153       -0.87081203578127       -0.41209123663439
C            5.02337691576005        0.35730764378891       -0.70562434871048
C            6.36948943817741        0.60328555863489       -0.47381309355855
C            7.17964274409153       -0.37321136813001        0.07447864263327
O            8.51399290978907       -0.24569748154807        0.33257039834624
C            9.15367808126931        0.96236615959946        0.00275847873587
C            6.61070921913408       -1.62698714149079        0.39735847564206
O            7.48659729855280       -2.52584214108862        0.92674470947585
C            7.03515302307644       -3.81077740689338        1.26873036337319
C            5.26713730958345       -1.85507809803779        0.15758742013300
C            0.17102592726099       -1.46172462976603       -0.70098739768283
C           -4.13617404511688        3.14756200013457        0.54190652954178
C           -4.55107822284404        2.63556435376454        1.92050900227957
C           -3.70375631158762        4.60878024681747        0.67008380487771
H           -5.15292992380597        1.06434116710519       -1.24806826958756
H           -7.34682573580321        0.24091183282489       -1.53797913273559
H           -7.69593505126418       -1.25109305472961       -2.44325000147883
H           -6.28082890321610       -0.26304331811434       -2.87962372509751
H           -4.42435797831631       -3.67191377616955        2.30250930938576
H           -5.02058873925475       -4.92448807493604        1.18973319167285
H           -3.36908294424713       -4.28131175702990        0.99716156705689
H           -2.76139494414574       -2.10383187742999        1.65546528047669
H           -1.95118159851353        0.17738980367564        1.43021876100126
H           -3.41721605173795        1.96120656717511       -2.23405145413616
H           -2.91806859006403        3.60077191096413       -1.79146782356540
H           -1.19416826013535        1.14503315946514       -1.92233113213799
H           -0.87974033714341        2.72870742613117       -2.65642939927889
H           -0.68731779578581        3.82402863815312       -0.46280243736699
H            0.30583915976078        2.35175547030170       -0.29667861908201
H            2.43892143194472       -1.37150623424279        1.35820101463103
H            2.42794706246020        0.30173104987810        0.81389333069986
H            2.73355550323112       -0.58109471143618       -1.61168868894663
H            2.85064682717745       -2.19560802705634       -0.88467468152858
H            4.41938528897350        1.13324088220417       -1.15239375047214
H            6.77422479059497        1.56661490705593       -0.73821032276534
H            8.74742253875990        1.80766130338142        0.56910046581469
H            9.08457390690698        1.17869351195215       -1.07019132253679
H           10.19983860073773        0.82242701939818        0.27493117622683
H            7.91252500556617       -4.32585346667829        1.66501796060492
H            6.25899597459679       -3.77955588047732        2.03992857467202
H            6.66351036383432       -4.35614826550707        0.39479152924832
H            4.83249135969240       -2.81723023935137        0.37679319420402
H            0.37999016380622       -0.98397101814888       -1.67575678630956
H           -0.91124143696724       -1.43658060152314       -0.55162601242211
H            0.51729645052845       -2.50735531702655       -0.79747571661582
H           -5.00010428692205        3.10753309072130       -0.12982938424465
H           -3.66579917395545        2.51065987974334        2.53755767634962
H           -5.05747311411879        1.67731487465344        1.84718854917328
H           -5.22189379489537        3.34912718142081        2.38978319101583
H           -2.90510829333678        4.70046652015788        1.40143044998906
H           -3.36701983743137        5.02720174752761       -0.27454889399183
H           -4.54734609331337        5.20547952719629        1.01167161458016
H           -0.57002028138940        2.60215474744064        2.12949307060693
