72
 energy: 12.957021592321 xtb: 6.6.1 (8d0f1dd)
N           -1.50611114918959        2.48753345395145        1.86190176269467
C           -1.65156209832034        2.38650278001190        0.61684475783158
C           -3.00357378576597        2.22206247651798       -0.05002006105040
C           -3.45949573466966        0.77687349195841        0.10578800342220
C           -4.57256858542898        0.35001579121400       -0.62022005510969
C           -5.05311489837851       -0.94102935034158       -0.52395149338580
O           -6.11976489834830       -1.44747242322969       -1.20848288571994
C           -6.80571740808572       -0.61627705425281       -2.10497841237432
C           -4.41336905022138       -1.85731483410812        0.33774988035576
O           -4.96394603964271       -3.10550460399884        0.38144307610964
C           -4.44698006750768       -4.04232461087088        1.29362118056325
C           -3.31507355762136       -1.43781778344414        1.06378996973917
C           -2.84018559300196       -0.13502804532916        0.94665330090664
C           -2.68150020217415        2.47608131500257       -1.54958999887681
C           -1.23990132717189        2.05621728695941       -1.78611532884277
C           -0.65805172673095        2.42225590671760       -0.45192790008360
N            0.70917014086003       -0.53702454783871        0.21309805956101
C            2.08356459045632       -0.56481497246086        0.42293322478087
C            2.97634032504681       -1.02159730994568       -0.76234357747165
C            4.43158372522948       -0.79074588456063       -0.46976739308463
C            5.03315470404047        0.42002353364565       -0.77302432881359
C            6.37629071706092        0.64520652978596       -0.50223487893600
C            7.15088973535911       -0.34172734085521        0.07473897830175
O            8.47593649367236       -0.23735638861644        0.38287868120206
C            9.14615883784918        0.95840484925585        0.06910434040031
C            6.54951471908891       -1.58493040110911        0.37433840998063
O            7.38501307283780       -2.49995487924667        0.93833199075207
C            6.89128574173865       -3.77568007990198        1.25186249043100
C            5.21289917704986       -1.79269854777998        0.09351286993121
C            0.11099533856213       -1.37201282219682       -0.74983563520714
C           -4.11789903575279        3.14432887226170        0.53998528912732
C           -4.56122574457796        2.65247400172606        1.92270872542288
C           -3.67194847007239        4.60246226122093        0.64994845223389
H           -5.06604307129969        1.04595701227542       -1.27408130432831
H           -7.25026169863775        0.24452441117039       -1.59499999552506
H           -7.59927647484811       -1.23448341956807       -2.52357328123269
H           -6.15961673091404       -0.26320527084138       -2.91635845636551
H           -4.51421293304711       -3.68488641482550        2.32711840115263
H           -5.06266515776026       -4.93336774266404        1.18362649604487
H           -3.40810118119012       -4.30292858959340        1.06972954702427
H           -2.81958667679655       -2.11893014783280        1.74244145064011
H           -1.98858413207622        0.15186471707103        1.54235748668686
H           -3.35021057365580        1.93899987090255       -2.20874371800639
H           -2.74045442691386        3.54560480637920       -1.74614707044248
H           -1.17964352481295        1.03804388351042       -2.18154839859485
H           -0.70245761398463        2.69277026815576       -2.46286974447728
H           -0.82626026812615        3.50447097825734       -0.30008666326685
H            0.38528838129679        2.26841151129286       -0.28835944374550
H            2.22225599976822       -1.27648495902522        1.27490180058435
H            2.43369409038395        0.43977590968288        0.75363863916640
H            2.73015437170114       -0.47326697851076       -1.69585237219246
H            2.79710118130576       -2.08840448398239       -0.91431683427442
H            4.45988692291689        1.20943308228642       -1.23776744545864
H            6.80713295679420        1.60139667691302       -0.74546524187711
H            8.73284380501167        1.81048657907969        0.61970290667669
H            9.11387400368267        1.17271802961452       -1.00632596003437
H           10.18003750379996        0.80421150727597        0.37744591231848
H            7.74018251903398       -4.31857853638644        1.67143577936252
H            6.09150447763008       -3.72875226547997        1.99697118837345
H            6.53440796837030       -4.30206683880956        0.36066241600957
H            4.74923856134509       -2.74220512645780        0.30073527474360
H            0.25852421693175       -1.05986728283698       -1.80926613234243
H           -0.98289847307679       -1.38378280146422       -0.61168573045753
H            0.52558211487318       -2.38519398797762       -0.68329802948491
H           -4.97328110334139        3.09254519632283       -0.14191353283978
H           -3.69492831624144        2.57109619490294        2.57185084863747
H           -5.04740611759641        1.68405285643336        1.87028292323547
H           -5.26095546058757        3.35905967402897        2.36995947939211
H           -2.87365549911088        4.69958623610228        1.38095900837164
H           -3.32370036041843        4.98972058930433       -0.30571142967847
H           -4.50704684204749        5.21869019426086        0.98161568325273
H           -0.56113494363745        2.67975263739279        2.18124500088301
