72
 energy: -10.433386770755 xtb: 6.6.1 (8d0f1dd)
N           -1.53219238561228        2.43731684045337        1.80613523500540
C           -1.71831039188118        2.45729069400113        0.56232246535246
C           -3.06603987115094        2.22706944360652       -0.08552360477572
C           -3.49858675794140        0.77690718798843        0.05686791282190
C           -4.62884312713492        0.34755704841287       -0.63978719816339
C           -5.09228816344065       -0.94764526925420       -0.52741230231766
O           -6.18384714316346       -1.45231737741930       -1.17156756178518
C           -6.90944170549587       -0.62534343360777       -2.04166164045579
C           -4.42090314970412       -1.85597049777037        0.31989970334079
O           -4.96813049663443       -3.10625732077146        0.38423465550932
C           -4.40993094082846       -4.03524816096918        1.27544611177268
C           -3.29749250757156       -1.42621778707336        1.00267623222254
C           -2.83546728712835       -0.12215131339696        0.86899609007276
C           -2.81252807988557        2.55802244870847       -1.58023501708562
C           -1.33076118087571        2.26899434605253       -1.80176997487677
C           -0.70947468577037        2.78379281041080       -0.50052610260280
N            0.77791536342918       -0.85064780519455        0.41076463503146
C            2.17950621534582       -0.76725284394075        0.50506441550463
C            3.03718091801420       -1.15622502653778       -0.70848512528918
C            4.48024860826112       -0.88348900544936       -0.42717306384652
C            5.03142477635175        0.34903644482636       -0.71985676886712
C            6.37419807411349        0.60330659209197       -0.47750667538802
C            7.18227200649254       -0.37326501886922        0.07276591588966
O            8.51347345433063       -0.24287143720251        0.33646995755922
C            9.15116716966620        0.96344719523876        0.00236707878865
C            6.62067022712367       -1.62999384708988        0.39744245319127
O            7.49936888653741       -2.52384284973988        0.92847676396776
C            7.05954808430181       -3.81168772902284        1.27458804284958
C            5.28146889161027       -1.86497657363605        0.15202393725341
C            0.18415395130360       -1.48746282951816       -0.69347889251244
C           -4.14817965424395        3.14600618641579        0.54852523312829
C           -4.55942583107980        2.63859704471603        1.92852429138878
C           -3.69694146126364        4.60298792368507        0.67315039775038
H           -5.15961620127035        1.05399875271545       -1.25724517382275
H           -7.35320634184545        0.23422906703844       -1.52541232572174
H           -7.70652564067803       -1.25563137497931       -2.43423148124479
H           -6.29194334204904       -0.27023609250186       -2.87444898896908
H           -4.43672127588592       -3.67391393046788        2.30928266245320
H           -5.03074078127184       -4.92674600757430        1.18663100397113
H           -3.37628460993249       -4.28469013762414        1.00890944591649
H           -2.75722827553976       -2.10059843331839        1.64937770287107
H           -1.95723874583093        0.17684925232542        1.41925937584273
H           -3.44867378464264        1.97091313151914       -2.23736023510044
H           -2.98577489592900        3.61525541813292       -1.78280290089713
H           -1.17925211914869        1.18939418540391       -1.89486294902162
H           -0.92916624240459        2.74360014633546       -2.70294288113058
H           -0.59598436767268        3.87238233332457       -0.50651671756159
H            0.26411856029506        2.33369309488688       -0.28935118472336
H            2.48299448160696       -1.39376113034504        1.37049408965700
H            2.43759291943664        0.26057913031023        0.81480180453044
H            2.72257735883928       -0.58094727966987       -1.58877368308839
H            2.87692409178299       -2.21520017464429       -0.91494015258293
H            4.41886048438924        1.12433992649026       -1.15604165993604
H            6.77888118884349        1.56922310408287       -0.73395072313014
H            8.74666950981124        1.80950003142812        0.56920618915372
H            9.08030386682686        1.17850557539559       -1.06916992616200
H           10.19830797873854        0.82379638396000        0.26718772671035
H            7.93903474667837       -4.32026098854451        1.66659238057439
H            6.28905067081229       -3.78342798353503        2.05302519790459
H            6.68338848335113       -4.36191471813392        0.40554440815647
H            4.84414470680354       -2.82265293232878        0.39446907090106
H            0.41286558728113       -0.99379130800688       -1.65281375255292
H           -0.89552965933265       -1.46002294364452       -0.54302924117472
H            0.51691708492104       -2.53362004239009       -0.81674910954662
H           -5.01754892693022        3.11575590998345       -0.11807397490596
H           -3.67216172891107        2.52878206183302        2.54550320252274
H           -5.05676752766666        1.67518882572063        1.86005236519891
H           -5.23788079587978        3.34881614232947        2.39427902381484
H           -2.89771324707264        4.68811913602630        1.40502192213636
H           -3.35390864947564        5.01704420877093       -0.27285107125659
H           -4.53442105401178        5.20879054830268        1.01320189114581
H           -0.57893292533676        2.62162134709597        2.11737611395964
