72
 energy: 33.081078064646 xtb: 6.6.1 (8d0f1dd)
N           -1.49400654053878        2.48341351650620        1.89145280754478
C           -1.64185277488117        2.41384197844287        0.64980206194004
C           -2.97408879763436        2.20484244349597       -0.00811711439772
C           -3.43670431796443        0.75795293044905        0.14773694936882
C           -4.52628332987540        0.33064588973486       -0.61274029749317
C           -5.01865028724887       -0.95707635378913       -0.52591127486827
O           -6.06659310731956       -1.46075338418905       -1.24518645255543
C           -6.73133700280822       -0.61537867973185       -2.14422178017022
C           -4.41149064121015       -1.87155547287304        0.35935777024942
O           -4.96790986938457       -3.11595275080269        0.38597638354334
C           -4.48577483249245       -4.05494752493237        1.31555680040360
C           -3.33491993431628       -1.45296020219679        1.11792274520113
C           -2.85210813928435       -0.15181583525693        1.01254435909887
C           -2.60575445035544        2.47002043992733       -1.48294364199016
C           -1.20089070440144        1.91756786091971       -1.73174535386546
C           -0.58542536053130        2.23153507541076       -0.40650509700414
N            0.63610054536830       -0.37040206198412        0.13549014346142
C            2.01661740006240       -0.45468639460132        0.34769353644091
C            2.95360548503279       -0.93369879972051       -0.84501591891728
C            4.41281750166620       -0.72758501263809       -0.54014608873121
C            5.04167353792291        0.47410993463473       -0.82812593656898
C            6.38088537544288        0.68045396954434       -0.52291083287976
C            7.12630862567044       -0.31821422830765        0.07214498664258
O            8.44537488772126       -0.23287300691524        0.42086124009309
C            9.13647616380513        0.95388679392050        0.11889873532014
C            6.49961358044716       -1.55178288274702        0.35516092130284
O            7.30466903940000       -2.47987303787690        0.94373079010302
C            6.78310003229370       -3.74904790104752        1.23524877711449
C            5.16757981882874       -1.74007521177896        0.04061439694986
C            0.06830789867498       -1.30628484949770       -0.75672912530426
C           -4.08626448172275        3.13405700909881        0.54932742749344
C           -4.56396544787615        2.67938362247396        1.93210336206980
C           -3.62651886113440        4.58917557751679        0.62825881297353
H           -4.99109404521042        1.02660969911303       -1.28894111205159
H           -7.17477648235883        0.24655607670624       -1.63403769966379
H           -7.52471061954435       -1.22136762568791       -2.58092771465389
H           -6.06813750463808       -0.26214288721605       -2.94138385998039
H           -4.58197331452374       -3.69257267078828        2.34528836225299
H           -5.10288956859912       -4.94400940341652        1.19086580085194
H           -3.44104126984262       -4.32071556459181        1.12559644919095
H           -2.86216471453047       -2.13584172337333        1.81183764935239
H           -2.01655389213416        0.13414233580307        1.63097890670261
H           -3.32107538236257        2.04177696029815       -2.16461238320516
H           -2.54072892259200        3.54414178595052       -1.62762017141630
H           -1.27101867050689        0.89381602755016       -2.11369249782435
H           -0.70216315241502        2.46446490722382       -2.52290975663695
H           -0.87235178169648        3.38005089150150       -0.17075502924712
H            0.49023427205193        2.18541609856062       -0.26087144048533
H            2.08579944511801       -1.17899072174906        1.20295978454143
H            2.41709556829690        0.53441466546486        0.64269031175695
H            2.72816381572072       -0.37065311806293       -1.77346459455668
H            2.77406042744009       -1.99628481375311       -1.02754454071180
H            4.48889065407862        1.27337634524035       -1.30222185533685
H            6.83037426259335        1.63167892718264       -0.75094544559312
H            8.71647506128531        1.81144991834835        0.65626511872427
H            9.13325932518204        1.16696888958325       -0.95749236937175
H           10.16111503298991        0.79093549990640        0.45363362766616
H            7.61071341966070       -4.31162221766694        1.67204881486884
H            5.96667384671744       -3.69153792546744        1.96073875702612
H            6.43879255760287       -4.26222428232691        0.33147760867849
H            4.68240217687547       -2.68061109621934        0.24239044737416
H            0.20067656632232       -1.06631605061325       -1.83430640765580
H           -1.00428762698897       -1.38097475295642       -0.55121229712277
H            0.53234664345530       -2.28068001452240       -0.61422576766133
H           -4.92075886501991        3.06947497618437       -0.15549744147769
H           -3.71090397463186        2.63671567492314        2.60308571665502
H           -5.01986598568560        1.69553571001963        1.89601284863394
H           -5.29558990587258        3.38256044158327        2.33399824782764
H           -2.82597729977350        4.68626454095401        1.35556381630124
H           -3.27781307444716        4.95354431670224       -0.33573536029288
H           -4.45351985575457        5.22181167240085        0.94805060071631
H           -0.57831198999024        2.72390098208649        2.23910504432371
