72
 energy: 40.268852967654 xtb: 6.6.1 (8d0f1dd)
N           -1.50092362728153        2.54578927671059        1.88615978874227
C           -1.62861386335549        2.43370886453671        0.64534810389636
C           -2.96256316226982        2.19976464600138        0.00562784581649
C           -3.42681060247952        0.75183197492392        0.16166944661084
C           -4.50915428520981        0.32481602682352       -0.60969519530799
C           -5.00631698499132       -0.96138608256654       -0.52578929501431
O           -6.04826619610978       -1.46361966708861       -1.25602270064676
C           -6.70574652344899       -0.61458558716776       -2.15684771815453
C           -4.41057460319379       -1.87608314516155        0.36667916905480
O           -4.96924998765707       -3.11913949462310        0.38719639241523
C           -4.49902983479994       -4.05886721867642        1.32261990240268
C           -3.34104748661593       -1.45807065965724        1.13581440409488
C           -2.85476226699826       -0.15784566979801        1.03390576711317
C           -2.57962185614337        2.46671257316900       -1.46144065178748
C           -1.19100329122966        1.86852981258872       -1.71589264405110
C           -0.55705178982949        2.13907352656781       -0.39292906724541
N            0.61869545801453       -0.32236495591693        0.10871683651322
C            2.00949233845478       -0.42363417042330        0.31532325099983
C            2.95045383963245       -0.90542392656955       -0.87600599411847
C            4.40865982333459       -0.70729692847359       -0.56480128302392
C            5.04474282775554        0.49213275267409       -0.84625806743029
C            6.38191068137388        0.69247350928930       -0.52944028311754
C            7.11720690288186       -0.31025447990775        0.07138238849436
O            8.43385129833399       -0.23142500279461        0.43108779386549
C            9.13295938368830        0.95207242872218        0.13508258036248
C            6.48299582280494       -1.54078987595478        0.34887829734375
O            7.27801812236533       -2.47327195677914        0.94378671763243
C            6.74683986259449       -3.73966129137547        1.22917566288697
C            5.15308999698513       -1.72285966409812        0.02311667072669
C            0.05294242690322       -1.28798853593713       -0.75467891242575
C           -4.07311244829111        3.13087408631218        0.55215332876650
C           -4.56205980551184        2.68814698080162        1.93508494777445
C           -3.61106392529282        4.58578903567543        0.62193287160422
H           -4.96552089500735        1.02084396275257       -1.29200519476645
H           -7.14952786967729        0.24777367220605       -1.64740716241061
H           -7.49833997654937       -1.21741431646912       -2.59936859048392
H           -6.03668371198630       -0.26166111689370       -2.94921657056653
H           -4.60509649640177       -3.69514464548808        2.35092603510110
H           -5.11669156355281       -4.94699133286852        1.19251130567062
H           -3.45277061115881       -4.32657081072567        1.14386745031582
H           -2.87664698783513       -2.14151319216893        1.83512903696720
H           -2.02530715084803        0.12822960992878        1.66081617358182
H           -3.31087835609943        2.07848711795496       -2.15021608138727
H           -2.47203518233150        3.54071240504705       -1.59141106778068
H           -1.31572912184676        0.84664600306896       -2.07853832362866
H           -0.71781082347076        2.38629537637044       -2.54853781996231
H           -0.82226383230368        3.29179774871034       -0.14746910326951
H            0.50862146578907        2.13724371543189       -0.20407096825622
H            2.04899611547150       -1.14576638384997        1.17498747928176
H            2.40997365581877        0.56663897452308        0.60461564107446
H            2.72718199386633       -0.33514091168985       -1.79994843892044
H            2.76564026198790       -1.96579478619824       -1.06595271312288
H            4.49799713216475        1.29448461645797       -1.32280278162853
H            6.83755961440771        1.64179718004525       -0.75261365526284
H            8.71184508669560        1.81144261975625        0.66880339605999
H            9.13988325115343        1.16536531407552       -0.94123187850438
H           10.15410318541819        0.78483619495713        0.47846456262854
H            7.56707370805904       -4.30901878615543        1.67134835091388
H            5.92508879725192       -3.67806595652035        1.94831051631316
H            6.40619097230621       -4.24866985695004        0.32165061167967
H            4.66078907859741       -2.66027952588094        0.22268478597694
H            0.16580272915322       -1.09648072147387       -1.83785000812191
H           -1.01071466441683       -1.37715322269511       -0.51775860759345
H            0.53936852565067       -2.24500339359460       -0.59533313390350
H           -4.90011516927155        3.06041716801427       -0.16012015969874
H           -3.71462756646481        2.65886530393991        2.61393760219599
H           -5.00851772992081        1.69958368245959        1.90342275886762
H           -5.30383133558869        3.39040999552496        2.32008261383630
H           -2.81046582749084        4.68507004262137        1.34847468430856
H           -3.26217973565422        4.94379479463476       -0.34420659652028
H           -4.43767095588155        5.22061152210253        0.93730845474250
H           -0.58725723190333        2.73770926481799        2.27013941445685
