72
 energy: 5.966384237993 xtb: 6.6.1 (8d0f1dd)
N           -1.51800745213052        2.51844878579836        1.85710569690546
C           -1.67449474552901        2.40824068061792        0.61349054671681
C           -3.01166979309286        2.22544597885372       -0.06263155775788
C           -3.46244405338717        0.78206602136469        0.09109861482293
C           -4.58594510859715        0.35704273704904       -0.62160460488578
C           -5.06382739789655       -0.93463052731788       -0.52186972702201
O           -6.13654486521264       -1.44239415029841       -1.19535481428923
C           -6.83033380933547       -0.61671523173213       -2.09126071691134
C           -4.41396897720967       -1.85221580936318        0.33194757246651
O           -4.96552184693364       -3.10090341208863        0.38420098842703
C           -4.43434964288215       -4.03825920992832        1.28654999040349
C           -3.30845006873810       -1.43265260183789        1.04686277872514
C           -2.83509391905169       -0.12951742546020        0.92581722875185
C           -2.70296826623097        2.49566385490982       -1.56128285258519
C           -1.25770336308135        2.10841810098218       -1.79320997788145
C           -0.68428236671583        2.52224913768378       -0.46249103689481
N            0.72757033774306       -0.60289018596992        0.25723211042861
C            2.10306935564158       -0.60121850926602        0.45123738908778
C            2.98344823698818       -1.04782804560400       -0.73272141821249
C            4.43741842905297       -0.81121630326685       -0.44583261172302
C            5.03046613729806        0.40220067176812       -0.75458248264055
C            6.37471515516231        0.63340026568225       -0.49520394180018
C            7.15875526873071       -0.34968547533866        0.07557414579164
O            8.48576845019201       -0.23863728754971        0.36966040327410
C            9.14840768088865        0.96056433866893        0.05248089634411
C            6.56579190952056       -1.59606496313065        0.38019920039908
O            7.41157329909580       -2.50718947158058        0.93452246821871
C            6.92719840474758       -3.78477381765185        1.25618347323144
C            5.22757966746366       -1.80993567647053        0.11094286451017
C            0.12615938408437       -1.39469912836986       -0.73869660044097
C           -4.12396529427723        3.14508890683981        0.53683366112871
C           -4.55861345819769        2.64519165813505        1.91951187894949
C           -3.68649728546126        4.60612029821753        0.65635338860491
H           -5.08841787819573        1.05227047019513       -1.26913088969114
H           -7.27555664561326        0.24373329651999       -1.58167988461941
H           -7.62387658667241       -1.23944681216422       -2.50324405383386
H           -6.19058300087412       -0.26387058033275       -2.90782527988100
H           -4.49111870261655       -3.68301103405722        2.32127593401200
H           -5.04932013630215       -4.93005081908993        1.18061189288782
H           -3.39767191788202       -4.29641277030346        1.04995281796826
H           -2.80608080780252       -2.11328840256955        1.72051548864084
H           -1.97808739124778        0.15824475783649        1.51344561282543
H           -3.35847523461794        1.95052324525777       -2.21777095349026
H           -2.77198087735009        3.55616367840166       -1.77405925113053
H           -1.19004144731858        1.06675055477570       -2.11861303202966
H           -0.73753773775396        2.73300884203489       -2.50336308098708
H           -0.81492802534077        3.61891736383653       -0.33076611501101
H            0.34509225458526        2.31721184177715       -0.28868551872407
H            2.27008793915525       -1.30626168243665        1.30202286296435
H            2.42957649880785        0.41036940633187        0.79186128357429
H            2.73172141390416       -0.50636265074485       -1.66892510210143
H            2.80011970000167       -2.11547233504519       -0.87333214203020
H            4.45071573247982        1.18851889245994       -1.21641992861021
H            6.79945299245593        1.59126560912278       -0.74299825905364
H            8.73716700882190        1.81078770340426        0.60741491233869
H            9.10654647048752        1.17565318236444       -1.02237264742191
H           10.18546701318300        0.81000254975425        0.35161894111387
H            7.78302033203842       -4.32103467480012        1.67008498741840
H            6.13301952618357       -3.74128483924840        2.00775528440692
H            6.56627954020314       -4.31575128555282        0.36933300639742
H            4.77125028136656       -2.76268236611155        0.31901682807157
H            0.28547092764953       -1.03311718866734       -1.77941567719294
H           -0.96815217557422       -1.40248410353554       -0.59827143954071
H            0.52685219424655       -2.41811881199105       -0.71001353695570
H           -4.98853043011723        3.10084047790989       -0.13698614050886
H           -3.68929080049911        2.55238493899733        2.56206013925488
H           -5.05456425848888        1.68140052791171        1.86221329554570
H           -5.24936511837058        3.35267594211998        2.37968698657642
H           -2.88982889961662        4.70304663370750        1.38927319641272
H           -3.33872491551457        5.00143967054974       -0.29627082067694
H           -4.52498478203086        5.21652075450617        0.99134590834890
H           -0.55820570231199        2.66475873578088        2.16425199410482
