72
 energy: 27.799067469888 xtb: 6.6.1 (8d0f1dd)
N           -1.50561274718346        2.49336719976225        1.88223706945299
C           -1.64915076987392        2.41089548679706        0.63959059186930
C           -2.98643273026455        2.21266068812710       -0.02464839606344
C           -3.44423287098810        0.76429967236195        0.13270133111399
C           -4.54183695283792        0.33652810356151       -0.61586212988635
C           -5.03056121737515       -0.95221806588957       -0.52551086894905
O           -6.08487844078497       -1.45652055872226       -1.23340580080317
C           -6.75605330528906       -0.61522402141397       -2.13153320135479
C           -4.41249041233575       -1.86723308061760        0.35201743461000
O           -4.96728911544257       -3.11278854222278        0.38415726251732
C           -4.47356300837259       -4.05136582468573        1.30806104582848
C           -3.32819117496827       -1.44807052182858        1.09942797758258
C           -2.84768758105762       -0.14631217513604        0.98969336212899
C           -2.63339158193171        2.47333318362379       -1.50659046247616
C           -1.21174116227311        1.97023899961148       -1.75139673959790
C           -0.61300262762938        2.31347611063001       -0.42246629228742
N            0.66172983088156       -0.42382779990040        0.16239535235852
C            2.03868627849372       -0.49009798966427        0.37519529822491
C            2.96058760845900       -0.96324025445121       -0.81660807164281
C            4.41908697548179       -0.74842365595749       -0.51675016217355
C            5.03925029598908        0.45623667224453       -0.80999088262125
C            6.38009456837492        0.66845979830536       -0.51642532791673
C            7.13516507572907       -0.32648100053155        0.07253606449938
O            8.45635965736657       -0.23484214703101        0.40889658438439
C            9.14045128925999        0.95497964904560        0.10267107567332
C            6.51664427575796       -1.56309641012498        0.36113226164305
O            7.33154656748643       -2.48667227803264        0.94291682504280
C            6.81898425066496       -3.75805101359029        1.24118348661653
C            5.18284543267989       -1.75765105550459        0.05768873357081
C            0.08571492769186       -1.32342442055862       -0.75945908062538
C           -4.09965926888990        3.13831862525001        0.54642628955681
C           -4.56335372646122        2.66978313487802        1.92950278296332
C           -3.64273278806332        4.59364328938557        0.63554557328663
H           -5.01653809959095        1.03248104022291       -1.28468149449801
H           -7.19951266968081        0.24651081610927       -1.62134222273578
H           -7.54976564866398       -1.22470732846806       -2.56263470913342
H           -6.09813091806090       -0.26212242737998       -2.93319454922673
H           -4.56019410099079       -3.69107626830291        2.33930720334853
H           -5.09029927746569       -4.94093701339944        1.18784564270039
H           -3.43065579494384       -4.31539062555075        1.10685350802512
H           -2.84797277814223       -2.13027879785973        1.78867792759159
H           -2.00677882750857        0.14005921234317        1.60057919998664
H           -3.33053634972270        2.00414825038826       -2.17998625944122
H           -2.61162129299519        3.54643850905019       -1.66714599878298
H           -1.22978271245223        0.94769851759175       -2.15002998437521
H           -0.69428136399442        2.54729792264475       -2.50351629196800
H           -0.91741483049499        3.44621532899972       -0.18827172960325
H            0.46318662844105        2.24647881660969       -0.29246995112492
H            2.13246888417275       -1.21018925070060        1.22928299251103
H            2.42421127123925        0.50435938703271        0.68011944401623
H            2.72797742376650       -0.40464054942710       -1.74663389217362
H            2.78385758011730       -2.02743945506425       -0.99077492737258
H            4.47979794398833        1.25236837821875       -1.28083182234547
H            6.82356798402283        1.62131688134753       -0.74942350078485
H            8.72221749153043        1.81057969771556        0.64430955454261
H            9.12764474897637        1.16847552988165       -0.97351081732197
H           10.16821104743595        0.79526242978269        0.42893983667244
H            7.65361849322645       -4.31418463429406        1.67254461366136
H            6.00801194051647       -3.70379395360015        1.97309329635004
H            6.47052221755581       -4.27561063749631        0.34153034583024
H            4.70454084440299       -2.70108190455404        0.26149373785776
H            0.23475565628254       -1.03755358949096       -1.83303708750800
H           -0.99530967931096       -1.38416179027216       -0.57935689988133
H            0.52908145543325       -2.31381414125237       -0.63984192281646
H           -4.94110137898769        3.07757121608739       -0.15064782276731
H           -3.70441545610411        2.61485590799724        2.59199096019327
H           -5.02839773616784        1.69060927837012        1.88857884071631
H           -5.28416121684347        3.37398644681968        2.34760540413593
H           -2.84277314238291        4.68986304459452        1.36409731234734
H           -3.29396287276417        4.96512745350230       -0.32595373584610
H           -4.47167140836581        5.22161172276962        0.95943927969332
H           -0.57537639522773        2.71102655957615        2.21026595534848
