72
 energy: -2.756946267446 xtb: 6.6.1 (8d0f1dd)
N           -1.57150827761257        2.78212532539605        2.23388377787613
C           -1.59960092355447        2.26259955049685        1.09039236312739
C           -2.78970812339044        2.08919163119220        0.21077365517990
C           -3.33376365286377        0.66810642307939        0.30001399393351
C           -4.33700345427666        0.26000195177802       -0.58230869615031
C           -4.87495080990997       -1.01162311822675       -0.53020152326788
O           -5.85711742781130       -1.48589469245951       -1.34749759360192
C           -6.44767036342012       -0.61036453626397       -2.27224049212426
C           -4.40125693892662       -1.93187733559714        0.43061960171972
O           -4.99142614133189       -3.16076998930632        0.40421598971102
C           -4.63674470200564       -4.09335219244514        1.39358205126160
C           -3.40955076524427       -1.52779303804532        1.30346025530260
C           -2.88271858360958       -0.24159204172443        1.23782326391938
C           -2.24941013680321        2.33466062310651       -1.21913614407042
C           -1.21339389202441        1.28656808989927       -1.68174184536198
C            0.03281901089960        1.22133930736413       -0.82328781036781
N            0.61816828983016       -0.01832386997575       -0.44503842899985
C            2.00574922581923       -0.08834323546599       -0.08525953126966
C            2.93612589861248       -0.60034246436252       -1.21720869533370
C            4.36831484500255       -0.48109869779906       -0.79762258855633
C            5.07186215473461        0.68992179375151       -1.01187306565523
C            6.38680521158121        0.81771659042429       -0.58962097570555
C            7.01774925533305       -0.22591404342911        0.06139086550173
O            8.30309128786401       -0.21477781112149        0.51466241389877
C            9.08040943537598        0.93281671491982        0.28933931288884
C            6.30618208965669       -1.42403019183512        0.29224320683978
O            7.00744459006184       -2.39837821232411        0.93568251782445
C            6.38765371816411       -3.63596065255218        1.16647984038025
C            4.99733142727297       -1.53297804730005       -0.13463709328435
C           -0.03698970173727       -1.28920944358813       -0.65651926204484
C           -3.91252193844877        3.08841875816840        0.57608476554292
C           -4.51128069033902        2.76243362725577        1.94327480053795
C           -3.43305627054518        4.53855539676420        0.56002886225768
H           -4.70982906509128        0.95745707077480       -1.31416717312947
H           -6.89912536367774        0.25645558173483       -1.77749461257698
H           -7.22804152849080       -1.19036725551674       -2.76273360297706
H           -5.72870067447738       -0.26729921259629       -3.02394907086477
H           -4.83705444697809       -3.71126534537801        2.40047076902248
H           -5.26221611515835       -4.96533558992976        1.20898087588225
H           -3.58349231856879       -4.38518097281490        1.32059409331154
H           -3.03663479155804       -2.20555602044391        2.05611149527522
H           -2.12431462934270        0.04149455460708        1.95103825253773
H           -3.08105442416330        2.33999899393224       -1.92549907739470
H           -1.78233685925077        3.31875385786841       -1.25644849748392
H           -1.71577448157809        0.32397606270211       -1.69484343305905
H           -0.97854395252068        1.54699685006307       -2.72933201103287
H           -0.68817402314326        1.90912027489912        0.53539506695139
H            0.72259937675883        2.06174687629341       -0.86717364498936
H            2.13030465948755       -0.74699158025457        0.79058682756137
H            2.32871423587006        0.91757418766416        0.18995928977937
H            2.75777134486197        0.00303228434237       -2.11058367027473
H            2.69443966487182       -1.64115903165201       -1.44181106535391
H            4.60081729754420        1.51686446057645       -1.52255934570609
H            6.91087103365524        1.73984931579420       -0.77993745916649
H            8.66061167638967        1.81121043793872        0.79165389836564
H            9.19037166750202        1.14553550927040       -0.77975314611424
H           10.05746651606786        0.70889614581492        0.71475147340132
H            7.14026992745826       -4.25084841215256        1.65865002914155
H            5.51833283436448       -3.53617981453330        1.82466471376030
H            6.08447928672854       -4.11875551901746        0.23124883162771
H            4.44451865250611       -2.44424096261926        0.03177269248929
H           -0.15983248905506       -1.53967709961398       -1.71499703616745
H           -1.02132372171934       -1.28286826183552       -0.17693387813395
H            0.55010929762575       -2.08952650506248       -0.19809479007856
H           -4.69218074588084        2.97579655038882       -0.18252498864899
H           -3.74804025071930        2.86527595280754        2.70835557492187
H           -4.89701544386335        1.74631995778547        1.96696144316465
H           -5.32562847225469        3.44932998505167        2.16071160869094
H           -2.63626945288373        4.67944600125997        1.28417282813636
H           -3.07781852894504        4.83626103650612       -0.42291761224406
H           -4.25863900379403        5.19258572963996        0.82923179449838
H           -0.63487460611450        2.78302214548065        2.65260607619615
