72
 energy: 68.397037393949 xtb: 6.6.1 (8d0f1dd)
N           -1.50717636012710        2.48802311207172        1.96241262369423
C           -1.58701716324386        2.43948220662865        0.68452590986457
C           -2.92925908960872        2.17943154450687        0.04506678348538
C           -3.40876470442292        0.73588481917822        0.19095108819820
C           -4.47432487196971        0.31140052341960       -0.60514527412851
C           -4.98096220991084       -0.97186636887296       -0.52687425584161
O           -6.01238967471144       -1.46942072553651       -1.27578900012113
C           -6.65591203145369       -0.61468359030056       -2.18089177391990
C           -4.41060217372978       -1.88745870760184        0.38027037116748
O           -4.97520075542877       -3.12762664830973        0.38870620688747
C           -4.52728649438106       -4.06653920571860        1.33658295468178
C           -3.35542515728888       -1.47169943801560        1.17089742371097
C           -2.86101241855787       -0.17465356829492        1.07601822528870
C           -2.52638971519411        2.45327976183086       -1.41302288134737
C           -1.18908551247663        1.75505853926640       -1.70175602062824
C           -0.47641111778774        1.85897621908394       -0.38723104932561
N            0.59010573278940       -0.23614684211933        0.04593234135834
C            2.00135277104947       -0.35395931270553        0.23153200024737
C            2.94655152582778       -0.84395270893372       -0.94771408269213
C            4.40154069734087       -0.66450957511017       -0.61489765656287
C            5.05249414127387        0.52984766712421       -0.88215079477932
C            6.38515029886890        0.71715789275857       -0.54291564060832
C            7.09872933669495       -0.29402016353456        0.06915773416267
O            8.41011298289178       -0.22819858880320        0.45086814862434
C            9.12461410611061        0.94850545327665        0.16693285051408
C            6.44925094292628       -1.51750574564871        0.33718357082008
O            7.22465905710511       -2.45899237270702        0.94406966670026
C            6.67496373511736       -3.71934640470434        1.21862403616434
C            5.12335937717907       -1.68561508415420       -0.01011680512689
C            0.03152260532797       -1.26409950937820       -0.75610663151970
C           -4.04244004079999        3.12274954327846        0.55724250422802
C           -4.55613441010861        2.70591791093580        1.94017173949130
C           -3.57529685255702        4.57684766681712        0.61081871021975
H           -4.91627038544465        1.00744390496422       -1.29721351257938
H           -7.10163157206386        0.24915504881854       -1.67506553166934
H           -7.44610393781602       -1.21227658221330       -2.63447715955692
H           -5.97560248990870       -0.26377638323049       -2.96426750699094
H           -4.65258659963088       -3.69830339032107        2.36094815878788
H           -5.14626590825571       -4.95208076810946        1.19645118370275
H           -3.47884346605661       -4.33787245568243        1.17898567483605
H           -2.90754502656777       -2.15560685202973        1.88041471196429
H           -2.04540121832423        0.11221440946832        1.71973518813427
H           -3.28902262053052        2.15125914393097       -2.11511152773811
H           -2.33608396224692        3.52443823523693       -1.51961560943317
H           -1.40574007719436        0.73654200921993       -2.01893287805951
H           -0.76634426546917        2.22763028024140       -2.60433582021970
H           -0.83850183992868        3.06288653136370        0.02784052279309
H            0.57391702280899        2.13419744392033       -0.28085891664877
H            2.07730337114878       -1.08159513921267        1.08734927498364
H            2.39906199879310        0.63484467063408        0.52444677175960
H            2.73450970064487       -0.26666444970631       -1.86642140683692
H            2.74616079692150       -1.90154109179897       -1.14113648949749
H            4.51938462299637        1.33736098123717       -1.36508071919797
H            6.85361884563266        1.66235683019563       -0.75673503961425
H            8.70245679342629        1.81166962909745        0.69361620320647
H            9.15147442852793        1.16124145787097       -0.90889094091120
H           10.13787256300108        0.77059943041506        0.52714097217327
H            7.48143157958685       -4.29922386186771        1.67171046369828
H            5.84320422624621       -3.64936289275056        1.92526730606844
H            6.34204409856286       -4.22283968038630        0.30519620619791
H            4.61892338266306       -2.61803448001437        0.18325332212732
H            0.10019718483727       -1.17595155005590       -1.84838196429101
H           -1.01765516612540       -1.37278116199933       -0.45620129537730
H            0.54164161625075       -2.21143431669074       -0.54363022156732
H           -4.86079413561368        3.04574830805761       -0.16583189388810
H           -3.72057249916358        2.69954479022894        2.63500687612947
H           -4.98794648948597        1.71057600025451        1.91831108781687
H           -5.31205931740519        3.40847691899487        2.29297812168240
H           -2.77487277273421        4.68275066931131        1.33601325326270
H           -3.22584233788071        4.92352373657115       -0.35859172801398
H           -4.39957306166814        5.21739887119703        0.91801745914322
H           -0.61325515190094        2.75831411591606        2.35223088647219
