72
 energy: -11.298759156617 xtb: 6.6.1 (8d0f1dd)
N           -1.54151030524977        2.45332526833525        1.80495563226686
C           -1.71476797682262        2.47942997551361        0.56070422499632
C           -3.06756402720343        2.23685539830052       -0.08070590943214
C           -3.50040361560212        0.78169850246944        0.05964491123898
C           -4.63082936959710        0.34803543960731       -0.63938940200308
C           -5.09408134476594       -0.94880906422338       -0.52861405530839
O           -6.18276875597363       -1.45659527288439       -1.17819728089256
C           -6.89890689973822       -0.63071424353403       -2.05798438693804
C           -4.42597119888137       -1.85885078409053        0.32008456483530
O           -4.96943945376933       -3.10918976725923        0.38369310482670
C           -4.41434940237182       -4.03806158918684        1.27847447796624
C           -3.30647652616915       -1.42846982618279        1.00553246021870
C           -2.84600712410385       -0.12390781276347        0.87180798736510
C           -2.81696646793586        2.56237446008204       -1.57201896977725
C           -1.33655712663364        2.25648535973371       -1.79098708418118
C           -0.68057945459454        2.74337121529491       -0.50449332867783
N            0.77488283664962       -0.80619241804724        0.38590688207627
C            2.17446488671935       -0.75897880209903        0.49793228362258
C            3.04053202747022       -1.15758807600918       -0.71206165451597
C            4.48958635885055       -0.88744590553588       -0.43941625582582
C            5.04309758087973        0.34492715833507       -0.73280951331175
C            6.38372639674543        0.60284668806162       -0.48116289307910
C            7.19217159293569       -0.37174630765980        0.07458023170380
O            8.52029387075444       -0.23843057847141        0.34694882485072
C            9.15948796138296        0.96708079697315        0.01388026109709
C            6.63300134636540       -1.63036779924311        0.39677699374149
O            7.50281677732844       -2.52411217445993        0.94374231480592
C            7.04095397751174       -3.80775941500811        1.27750389222125
C            5.29557526220542       -1.86800375854370        0.13840480582425
C            0.17525671675622       -1.47728954805670       -0.69608953243982
C           -4.15795804085185        3.14810894521771        0.55322607599573
C           -4.56729507660326        2.64027860974977        1.93459153302689
C           -3.70428785622881        4.60311328858474        0.67603198631768
H           -5.16680590919307        1.04557233759139       -1.26409895435832
H           -7.34220559998191        0.22846869175644       -1.54279429711024
H           -7.69551827989362       -1.25715390601027       -2.45781175910109
H           -6.27280180087599       -0.27516662005438       -2.88409062271949
H           -4.44870781399149       -3.67659334613126        2.31186117302804
H           -5.03253973671558       -4.93059716225474        1.18891711413369
H           -3.38009171843288       -4.28817968116088        1.01761471481865
H           -2.77172348133032       -2.09857902663002        1.66018403680905
H           -1.97239414870498        0.16952140954745        1.42852966322002
H           -3.45109903910726        1.97886805865642       -2.23731625624493
H           -3.00928072673574        3.61851940959839       -1.76717387369610
H           -1.19295915753807        1.17875796962603       -1.88801507779070
H           -0.93607941054554        2.74359629907044       -2.68061315724946
H           -0.48402887298288        3.82066409680136       -0.55360949893720
H            0.25403704079361        2.22960562796721       -0.27087590143457
H            2.46078906151455       -1.39130265712967        1.35781357506873
H            2.43393854394768        0.26390092268561        0.81535558683854
H            2.71522636279543       -0.57251038901901       -1.57566119013057
H            2.88790842282154       -2.21547747361105       -0.93409893982933
H            4.43249744008376        1.11844610111313       -1.17494879340407
H            6.78633815176625        1.57169564858881       -0.73160068729632
H            8.75072821505201        1.81323203039118        0.57674708782235
H            9.09273831773931        1.17918335716178       -1.05871822736513
H           10.20421665993814        0.82579048505704        0.28726304311418
H            7.90828208946107       -4.33208803194526        1.67656331196446
H            6.25823850797814       -3.77249109295136        2.04299923022795
H            6.66718458956286       -4.34638165530226        0.39996957898776
H            4.86003888737966       -2.82758269704858        0.37322248923351
H            0.39427770922284       -0.98799713068957       -1.65970882300855
H           -0.90474519669449       -1.47127109262582       -0.54157358292928
H            0.52208874628297       -2.51726359459033       -0.80449763165176
H           -5.02955937612645        3.11605115757446       -0.11085739130927
H           -3.68135128308238        2.53415469650026        2.55376088270632
H           -5.06264567027302        1.67544400955631        1.86868029933035
H           -5.24705905908739        3.34799309035270        2.40418326799506
H           -2.90055701608176        4.68641213939347        1.40278707398112
H           -3.35956763770833        5.00943298113771       -0.27206193589206
H           -4.53613548957156        5.21576014824265        1.01693097457635
H           -0.58790069828781        2.62343776273374        2.11873664311101
