72
 energy: 25.963085591730 xtb: 6.6.1 (8d0f1dd)
N           -1.57913065865462        2.53878057037462        2.12317739987515
C           -1.65582517553755        2.49512025829709        0.87311816635580
C           -2.88003999703321        2.14779216819931        0.11431500020535
C           -3.38229737962719        0.71306089666479        0.23703446355064
C           -4.42331599873236        0.29307578145479       -0.59562141204216
C           -4.94109339539636       -0.98662028390826       -0.52881656282871
O           -5.95350157380357       -1.47718264058090       -1.30457221166075
C           -6.57790144698295       -0.61355683922882       -2.21577523487736
C           -4.40748208193616       -1.90458613471709        0.39918207978704
O           -4.98264204032736       -3.14206132316120        0.39261200236504
C           -4.56910854339579       -4.07703204081956        1.35798384579184
C           -3.37601874201077       -1.49286233350691        1.22101586493733
C           -2.87066479623445       -0.19861619107363        1.13946815223534
C           -2.39723569720033        2.40310144423636       -1.32069678444227
C           -1.15048199778846        1.53392755524769       -1.68889280297499
C           -0.07842054722463        1.32645725727575       -0.57033452253840
N            0.53506976502155       -0.00150409162962       -0.18957890080662
C            1.98439156051314       -0.21932449733552        0.10691931879644
C            2.92793961177888       -0.74368714240304       -1.04928921095728
C            4.38355006896456       -0.59417960651007       -0.68377244203456
C            5.05888065821010        0.58877874540536       -0.93280512610847
C            6.38592345405656        0.75447281316218       -0.56075250330855
C            7.06936031292415       -0.26839234938838        0.06765951398029
O            8.37040511230038       -0.22333132244291        0.47717841443426
C            9.10913639543029        0.94291669882876        0.21353279288247
C            6.39504365799474       -1.48242296094280        0.32020932386308
O            7.14299848665514       -2.43565828119690        0.94222477781402
C            6.56681014491215       -3.68824046329009        1.19955299977536
C            5.07430230225450       -1.62862184237777       -0.05949454850689
C           -0.01096174424884       -1.24884673000547       -0.74010618252780
C           -4.00342637582091        3.11142691647951        0.56187972663796
C           -4.54317509360494        2.72951655923563        1.94126110550978
C           -3.52624939760336        4.56254597480369        0.59061631963256
H           -4.83835018425093        0.98841614163401       -1.30588135349213
H           -7.02463005606628        0.25130927586716       -1.71269849986561
H           -7.36515618285374       -1.20335984399220       -2.68389537047732
H           -5.88252837572948       -0.26499491474278       -2.98664639188819
H           -4.72201437343745       -3.70318049826531        2.37670933058936
H           -5.18985034377296       -4.95870852630147        1.20279165607944
H           -3.51759287262122       -4.35562435994672        1.23283167492562
H           -2.95543291147803       -2.17484140670290        1.94644228207611
H           -2.07507728563611        0.08688829408299        1.80856256874244
H           -3.20133301121198        2.21693572322140       -2.03333488688766
H           -2.11570642466997        3.45538707261620       -1.40870185914742
H           -1.53279737214586        0.55490439484312       -1.91581068572406
H           -0.84280870339309        1.96919311265581       -2.66795695989393
H           -0.77984747005340        2.64676108015716        0.25195862453370
H            0.69291755796719        2.10632786121320       -0.50388216101047
H            2.08675248984699       -0.94453209419652        0.95714939836997
H            2.38439976198810        0.75287482292569        0.40132003231861
H            2.74120012493286       -0.16275588416452       -1.96158962443400
H            2.72398038056155       -1.79959360882109       -1.25377961689180
H            4.54976940546214        1.40470512355244       -1.42517535922446
H            6.87586403291664        1.69141088567844       -0.76472500808527
H            8.68642049115696        1.81150060593555        0.73032692193000
H            9.16640387035919        1.15618479538887       -0.86042374155108
H           10.10961733787820        0.74885442993048        0.59888869036374
H            7.35260587390642       -4.28237121253078        1.66766274678171
H            5.72047921136702       -3.60628439515471        1.88767228395791
H            6.24488287931626       -4.18288301258809        0.27732126126246
H            4.55320094571789       -2.55353969407408        0.12623662028784
H           -0.00822957079900       -1.31949969306856       -1.83225097418241
H           -1.03134319036377       -1.35748982021934       -0.35590094286482
H            0.53822878184310       -2.14280873120531       -0.39797036101599
H           -4.80248450145131        3.02009907262102       -0.17640224913227
H           -3.72675691462530        2.76406941701164        2.65864837234529
H           -4.95488007865587        1.72429623557714        1.93793555142966
H           -5.32133444002557        3.42830556049108        2.24600378847853
H           -2.72501828871038        4.67587998339333        1.31459087440377
H           -3.17113496319205        4.88839566084128       -0.38315386568677
H           -4.34726743858925        5.21227185002563        0.88473479711681
H           -0.65545525030866        2.78777915297556        2.47380581491247
