72
 energy: 7.266919305867 xtb: 6.6.1 (8d0f1dd)
N           -1.61115384082806        2.72526045845947        2.20451754240702
C           -1.63440859164689        2.36565542156185        1.00670303604524
C           -2.83084819631333        2.11419511337761        0.17296785293062
C           -3.35450181628757        0.68705683875257        0.27558354377223
C           -4.37198683628285        0.27352788772893       -0.58784373108740
C           -4.90146466166162       -1.00153723743091       -0.53013907582564
O           -5.89528642223229       -1.48323359325970       -1.33109103206184
C           -6.49998583581632       -0.61229651570733       -2.24991607735464
C           -4.40382473949778       -1.92082712627635        0.41801920303123
O           -4.98848712483188       -3.15296834837383        0.39903494019475
C           -4.61041420876295       -4.08637659748933        1.37971198763226
C           -3.39673921908294       -1.51280820098241        1.27108009019683
C           -2.87936210118811       -0.22292267684527        1.19977041119085
C           -2.30728619121262        2.36378037414658       -1.25668884918113
C           -1.17589163323430        1.38912624257764       -1.68562439366881
C            0.02306616387482        1.28428166503345       -0.72049590339914
N            0.59763745484795       -0.00378226953605       -0.32993139882606
C            2.00472626886246       -0.14434321316392       -0.00898864939019
C            2.93557593275166       -0.65927772238082       -1.15324256995662
C            4.37664616467756       -0.52817736153039       -0.75629488904787
C            5.06779446689186        0.64875972177007       -0.98201471431274
C            6.38702632907711        0.79270291393762       -0.57779584457744
C            7.03889419114166       -0.24281794072741        0.06440196818240
O            8.33078038449861       -0.21796271025759        0.50074803522368
C            9.09220899205440        0.93738402821022        0.25911891429541
C            6.34255882128763       -1.44727122731799        0.30372477421716
O            7.06219306826950       -2.41310577718548        0.93969201292629
C            6.45928150963689       -3.65655663407032        1.18048764234777
C            5.02955647236176       -1.57207051033082       -0.10632639287781
C           -0.02488855646421       -1.27160348087722       -0.69143613978183
C           -3.95275563581462        3.09843172308922        0.56977951341651
C           -4.52699789741275        2.74990131127128        1.94245291306925
C           -3.47156462913588        4.54795604022653        0.57254447344264
H           -4.76105645543176        0.96997077414172       -1.31183457285340
H           -6.94917995872100        0.25371604136714       -1.75125920916640
H           -7.28327083812003       -1.19614834863802       -2.73139371009760
H           -5.79044399205403       -0.26679100545100       -3.00916043723685
H           -4.79172963661873       -3.70686588060938        2.39141776167106
H           -5.23412275003882       -4.96246410529803        1.20766815165506
H           -3.55755903750115       -4.37304786540916        1.28631816880153
H           -3.00360779675818       -2.19291974464246        2.01210552535921
H           -2.10442277925835        0.06011948800645        1.89438506151799
H           -3.13238257737081        2.29299715690768       -1.96741728620761
H           -1.91617158565832        3.38007172532246       -1.31316978255544
H           -1.63486451720785        0.41389522125411       -1.77516639144835
H           -0.93262332886720        1.71566454420771       -2.71747614279823
H           -0.70494417136672        2.17069305889318        0.42119861668823
H            0.75436594048774        2.10224859243362       -0.73437758091666
H            2.12540591032019       -0.83086872237241        0.85543349007316
H            2.35461262511367        0.84889429562601        0.27438827788724
H            2.75035477431110       -0.06177889320044       -2.05115645115343
H            2.70825219583955       -1.70611480807436       -1.37024639973261
H            4.58037373123246        1.47169428585509       -1.48405595227917
H            6.89728757801706        1.72115376614892       -0.77252923148373
H            8.67039290928561        1.81184964909240        0.76666174516401
H            9.18064150144196        1.15031721795713       -0.81225433645111
H           10.07903963981052        0.72609868248229        0.66871582369313
H            7.22475407345047       -4.26379669639254        1.66338783820562
H            5.59882559326599       -3.56339694960029        1.85024683053810
H            6.14858234447555       -4.14374552695658        0.25022709655848
H            4.48863439185264       -2.48817858470582        0.06901596762325
H           -0.09796567965278       -1.45095858145718       -1.76892715229860
H           -1.02538498921703       -1.31593153684324       -0.24748367858906
H            0.54252432397664       -2.11647009183236       -0.27822814842942
H           -4.73840405418837        2.99473979406554       -0.18159605820499
H           -3.73995128595145        2.82684952679347        2.68719574545855
H           -4.92105448857959        1.73708255443427        1.95489537365486
H           -5.32775804326958        3.44165246336263        2.19501214834008
H           -2.67249006968066        4.67463655035922        1.29673795352416
H           -3.11516425627363        4.85629145107027       -0.40630776833778
H           -4.29373030749426        5.20187962532211        0.85197971341105
H           -0.65658192706371        2.79356663554946        2.57848192897012
