72
 energy: 20.498823823019 xtb: 6.6.1 (8d0f1dd)
N           -1.59881369436875        2.60257293595878        2.15985610957515
C           -1.65527525129338        2.45737838304611        0.91823752791897
C           -2.86612414768048        2.13620668315288        0.13412135424222
C           -3.37398444243470        0.70405028020645        0.25003279474709
C           -4.40664244122383        0.28617519898811       -0.59327998667814
C           -4.92805870403893       -0.99199852904396       -0.52947851638387
O           -5.93418132993653       -1.47986201479106       -1.31379027276724
C           -6.55178749806941       -0.61331158222697       -2.22726269665412
C           -4.40631674663503       -1.91014581593048        0.40549057455034
O           -4.98460196731764       -3.14590647798293        0.39448500828970
C           -4.58278599532080       -4.08014581399092        1.36535749992322
C           -3.38297821308521       -1.49951799561875        1.23786067615858
C           -2.87393722282831       -0.20664559501515        1.15975724047663
C           -2.36658603200366        2.39012137861424       -1.29783873714563
C           -1.15616049071915        1.48367849787362       -1.68209456535052
C           -0.04710528343564        1.30290996443302       -0.58869281120577
N            0.55604354752494       -0.00774292801840       -0.22559641322970
C            1.99205135765162       -0.19601059255513        0.06966018408240
C            2.93008313142149       -0.71598373885599       -1.08405038182351
C            4.38124052947891       -0.57250653201603       -0.70854466275992
C            5.06198477501356        0.60844978387762       -0.94979823958736
C            6.38646107677801        0.76707955452551       -0.56667173303755
C            7.05933207736441       -0.25995663143467        0.06662197723158
O            8.35726850901518       -0.22155899390353        0.48566842636186
C            9.10342218739906        0.94118062590638        0.22896987907424
C            6.37768947946148       -1.47076798081289        0.31462996892270
O            7.11611682678851       -2.42815607906597        0.94164123068982
C            6.53105233438534       -3.67775919547300        1.19334783690189
C            5.05960462251994       -1.61001476916979       -0.07569171903971
C           -0.01608478435804       -1.25967810420114       -0.72307923381129
C           -3.98783817268221        3.10714396177280        0.56410436456170
C           -4.53811928698545        2.73663450283491        1.94171900742285
C           -3.50850159785483        4.55757834409115        0.58429746357263
H           -4.81288869305593        0.98205797965602       -1.30812557567245
H           -6.99917850317542        0.25198769742760       -1.72549917870245
H           -7.33777018745596       -1.20079737360675       -2.70018610638699
H           -5.85139117393620       -0.26565916991611       -2.99394707314003
H           -4.74524339339477       -3.70420646420014        2.38179142245908
H           -5.20438478658089       -4.96014876707822        1.20478551685137
H           -3.53062771699774       -4.36119414597960        1.25095559978583
H           -2.97133704493750       -2.18085054871182        1.96854265871206
H           -2.08513747652801        0.07818797836202        1.83736382535694
H           -3.17827057302077        2.24272317596426       -2.01137169587107
H           -2.04799466297751        3.43200712254892       -1.37521398668984
H           -1.56631739533330        0.50553730926913       -1.86735467395532
H           -0.86940525519414        1.88392390529213       -2.68190224766791
H           -0.74972841151938        2.48101607240718        0.30735256492646
H            0.71957007495307        2.09772468894844       -0.57787795470940
H            2.10296456168920       -0.90801460760535        0.92411141486378
H            2.37454787878472        0.78427982956530        0.35902883019477
H            2.74335501982819       -0.12885070465691       -1.99102301058588
H            2.71866303255405       -1.76891959205614       -1.29306464667449
H            4.56002702325373        1.42680574257520       -1.44534871128896
H            6.88313708828951        1.70127660956013       -0.76736780189177
H            8.68056586146060        1.81165530646827        0.74246556406710
H            9.17093603098577        1.15430258285239       -0.84424719772451
H           10.09948853603400        0.74171331605489        0.62253605209483
H            7.31006072518869       -4.27634705140339        1.66653469713135
H            5.67990960181613       -3.59204490321806        1.87523150333849
H            6.21300180234050       -4.16989595541985        0.26837552086035
H            4.53176940523544       -2.53189332058395        0.10685856531895
H           -0.03806832034551       -1.36287846878051       -1.81256656325974
H           -1.03041516452894       -1.34676558679872       -0.31855987921326
H            0.53937020415736       -2.13715599223551       -0.35786300363837
H           -4.78179963403054        3.01181634784201       -0.17901042216536
H           -3.73039684726916        2.78543735223426        2.66769548361098
H           -4.94358995945991        1.72867412916743        1.94376030843222
H           -5.32372022470450        3.43350072025818        2.22913526772947
H           -2.70783753716906        4.67537306149229        1.30820324448864
H           -3.15297609984635        4.87753704040486       -0.39116264815016
H           -4.32968187100112        5.20890948925686        0.87365684279713
H           -0.65829932684425        2.79130480727676        2.51037651959591
