72
 energy: 47.988712608959 xtb: 6.6.1 (8d0f1dd)
N           -1.50656243425367        2.52615505731704        1.91631281858197
C           -1.61758265951003        2.40741524348653        0.67124692789598
C           -2.95041162767953        2.18740720079435        0.02533969982881
C           -3.42055421662652        0.74252718006291        0.17590474922482
C           -4.49393112763698        0.31720351070538       -0.60761873317940
C           -4.99507133595886       -0.96738359772851       -0.52626833556867
O           -6.03084691878395       -1.46734267541742       -1.26644008297387
C           -6.68079522001856       -0.61468355539290       -2.16920915030494
C           -4.41116595876888       -1.88205170121273        0.37356856018045
O           -4.97250676278375       -3.12401436735493        0.38804552137958
C           -4.51352302804960       -4.06329779245870        1.32941599242562
C           -3.34914485180142       -1.46511374268283        1.15348205874052
C           -2.85949085112678       -0.16625866357770        1.05515752904644
C           -2.55545816113823        2.46084391714160       -1.43613145263037
C           -1.19233273742407        1.81513856394627       -1.70413277261075
C           -0.53337721001641        2.04264632219993       -0.37700698945508
N            0.60911425160308       -0.28392791829784        0.07646466756056
C            2.00879890327090       -0.39247076064211        0.27664563821477
C            2.94946343613081       -0.87592683763227       -0.91137032383943
C            4.40581078162035       -0.68667285892330       -0.59062548229069
C            5.04860375039415        0.51029479698818       -0.86502147858594
C            6.38343952629010        0.70461031908657       -0.53631101283424
C            7.10819176272360       -0.30205325436987        0.07056960393017
O            8.42186474708905       -0.22981768288111        0.44093812342124
C            9.12917432180217        0.95011882187917        0.15107854443789
C            6.46633863924400       -1.52954474893095        0.34296032430641
O            7.25156384661347       -2.46605429182123        0.94413429585701
C            6.71083121060837       -3.72955430377479        1.22357772693581
C            5.13877371318035       -1.70520818201896        0.00597498487074
C            0.04417266047005       -1.27858061070301       -0.75518137309173
C           -4.05915157166578        3.12678320244598        0.55600153577376
C           -4.56083364979191        2.69800927459409        1.93866989256036
C           -3.59317636156543        4.58069136761347        0.61605662106193
H           -4.94104265595418        1.01385805298000       -1.29535551003329
H           -7.12503017161138        0.24831193860550       -1.66099656435871
H           -7.47235295183447       -1.21461453369637       -2.61723114275186
H           -6.00587475669276       -0.26265402613226       -2.95691063478601
H           -4.62910226277647       -3.69778707426219        2.35607190880682
H           -5.13167212631986       -4.95043231328350        1.19432689431097
H           -3.46600345416572       -4.33290526242626        1.16132473308372
H           -2.89297111544473       -2.14848232535132        1.85796384922997
H           -2.03628928136212        0.11967858408890        1.69014748370486
H           -3.30233836265292        2.11337589472218       -2.13186408162135
H           -2.40580905016634        3.53398191329783       -1.55467959101347
H           -1.36014390533281        0.79239874144001       -2.04371585826415
H           -0.74119338628558        2.30818556672027       -2.57343895270048
H           -0.81170180294836        3.17942213810060       -0.09485056777361
H            0.53115950287586        2.12032713520546       -0.19691074027677
H            2.06349902022285       -1.12103414821884        1.13444650931133
H            2.40287068348202        0.60038533359193        0.56496379449170
H            2.73000095022042       -0.30021690742750       -1.83088239912231
H            2.75752063892660       -1.93433924448882       -1.10518535923973
H            4.50829383812331        1.31547180666697       -1.34434585587740
H            6.84542901483807        1.65186337995295       -0.75482557269920
H            8.70775013299267        1.81150149780981        0.68129815002400
H            9.14639104516603        1.16351819816656       -0.92499337179959
H           10.14635296422444        0.77743013766168        0.50290786862957
H            7.52398457616692       -4.30447320202820        1.67101127100435
H            5.88387283345542       -3.66375837532839        1.93634498005230
H            6.37392263780184       -4.23513643098494        0.31275845392829
H            4.63981840602945       -2.63967648955422        0.20294389090086
H            0.13046060325448       -1.13110374647196       -1.84349414187889
H           -1.01213877179860       -1.37523771270537       -0.48502677530254
H            0.54336097848572       -2.23450499624056       -0.59219490715232
H           -4.88054591694411        3.05263595839198       -0.16258359533339
H           -3.71872036849829        2.68093540049507        2.62468808620477
H           -4.99942019913720        1.70557771051872        1.91231023753174
H           -5.31039346567829        3.40005987953741        2.30779545499450
H           -2.79252085311018        4.68239629574019        1.34190660605526
H           -3.24392009824121        4.93260585574226       -0.35196603490330
H           -4.41830659114035        5.21923101867745        0.92700112460618
H           -0.60028343155014        2.74212820106828        2.30746606708890
