72
 energy: -99.371914927497 gnorm: 0.001324366584 xtb: 6.6.1 (8d0f1dd)
N           -1.63436297397137        2.78992728269351        2.08585697223354
C           -1.73889003693868        1.93686896528217        1.17666595400854
C           -2.95278327217768        1.81011635430613        0.29721562013112
C           -3.48475336960559        0.39158417926506        0.35208030467396
C           -4.39860692604079       -0.05589096494156       -0.60159673543580
C           -4.92186994048625       -1.33884401740275       -0.55636996108789
O           -5.81084848761028       -1.84985939014280       -1.42870011309595
C           -6.34032797829522       -1.02878269973204       -2.44318514242311
C           -4.51523820387818       -2.22589643148633        0.48019748532482
O           -5.06265522756434       -3.45321574796298        0.43838978631113
C           -4.74618710967245       -4.38451700685863        1.44741617704018
C           -3.61726566121188       -1.76767661769530        1.43319285850315
C           -3.11577296807300       -0.47609979545493        1.37198152057618
C           -2.40577450997998        2.12658673596796       -1.15694127748487
C           -1.59113812549436        1.04843308950358       -1.72299070163815
C           -0.11593827690872        1.02046058041681       -1.63843709475541
N            0.38697529890147        0.18428971715462       -0.53746124384409
C            1.79425478082416        0.33815762596576       -0.26451201611398
C            2.74947380944048       -0.18111207949190       -1.36528421097074
C            4.17185526424338       -0.01547760540380       -0.92853435037982
C            4.84713070006852        1.17807534608272       -1.15107442578013
C            6.15475530778171        1.34588610079319       -0.72800549045573
C            6.82069218704445        0.32148053107158       -0.06619313499702
O            8.08506461844772        0.36918357929678        0.38404222190998
C            8.85010965427389        1.53480571049018        0.17858103383012
C            6.13601536410736       -0.90556550458254        0.17198478799728
O            6.85388051690131       -1.84454267571063        0.81380511181783
C            6.27554702869088       -3.10182322756580        1.07404712031526
C            4.82546207903273       -1.04697492877464       -0.25950164279761
C           -0.08606241303799       -1.17961918871385       -0.57817613436934
C           -4.10589527139991        2.78636762963288        0.65089331181982
C           -4.63416910444821        2.51828241380301        2.05925446470214
C           -3.72264275357815        4.25673534178975        0.51450125842089
H           -4.71146849516671        0.61004921905907       -1.38885902149840
H           -6.85085062848705       -0.15569541748990       -2.02589782164752
H           -7.06152436753083       -1.64841681986100       -2.97259767917630
H           -5.56444172298016       -0.70139882543977       -3.14245865178297
H           -5.03684531698160       -4.01799019522252        2.43624487955197
H           -5.32044394294099       -5.27805420675116        1.21049975583784
H           -3.67923862532154       -4.62808164359904        1.44664380190099
H           -3.30576315556069       -2.41058031178749        2.24014671819293
H           -2.44047169116385       -0.14598771392212        2.14556859702805
H           -3.27986546368506        2.30875962804413       -1.78477158634653
H           -1.82500259721077        3.04688476440922       -1.08229572124521
H           -2.08857708642173        0.20890742987143       -2.17910305477795
H            0.28399931365568        0.63851841805020       -2.59319461733887
H           -0.94210095605795        1.23256753321549        0.89783244039386
H            0.27282773358922        2.02845699662916       -1.46734054650086
H            2.01012346159137       -0.19623950543571        0.66521770142096
H            1.99492556646022        1.40007033730627       -0.09698521379801
H            2.57774287129966        0.38417402636744       -2.28243482301714
H            2.53668337484825       -1.23397545360678       -1.55425483515544
H            4.35387951199806        1.98574315227831       -1.67001488741994
H            6.65399286805466        2.28105704934053       -0.92213669720327
H            8.40371869829587        2.39960957996302        0.67846463974197
H            8.97147395175006        1.75050767841105       -0.88703723713737
H            9.82353640153488        1.32618915252980        0.61824174069372
H            7.04900315145335       -3.68124116461108        1.57440827136627
H            5.40596422123477       -3.01395214606926        1.73287645195411
H            5.98490729097178       -3.60845348181474        0.14872920137850
H            4.29991597506960       -1.97353330269525       -0.08895341538007
H            0.16057894949076       -1.68855945196807       -1.51828304046563
H           -1.17015747410047       -1.18126710197945       -0.46070063979868
H            0.35308429575831       -1.73545861104111        0.24799010836653
H           -4.91813893553606        2.57786194402472       -0.05590493006736
H           -3.86715861150992        2.74544691841790        2.79348721142899
H           -4.93943893228289        1.48085839945656        2.17424214626107
H           -5.49547838907661        3.15238295515789        2.25226484567392
H           -2.88238290250507        4.48631018786513        1.16275871773021
H           -3.46960642593061        4.51735628788202       -0.50982495515543
H           -4.56469159393579        4.87465012195198        0.81564254518975
H           -0.76622872505304        2.82531979396851        2.60991212941391
