  25
        -42.15943822
 C          2.8818319761        1.2380167286        0.5400971657
 N          2.1193760195        0.0515274295        0.2598882702
 C          2.5963633644       -1.1823170042        0.2260910191
 N          1.6070624014       -2.0342380369       -0.0690958571
 C          0.4291811304       -1.3218291899       -0.2056829292
 C          0.7630957407        0.0126755390        0.0300812744
 C         -0.0283971147        1.2406561723       -0.2514224798
 O          0.4982012871        2.1859825981       -0.7954580905
 N         -1.3636856182        1.1989031693        0.0615246817
 C         -2.2459975305        2.1885844050       -0.5314541893
 C         -1.9296938134        0.3550595898        0.9981076991
 O         -3.1028053106        0.3144973783        1.2124386125
 N         -0.7932448955       -1.8326907530       -0.4107660461
 C         -1.1088098193       -2.8614029164       -1.0825841841
 H          2.5918424175        1.6515529621        1.5073634353
 H          3.9419703571        0.9985043898        0.5534999419
 H          2.6777720578        1.9903135922       -0.2234348595
 H          3.6160035560       -1.4592169979        0.4146976432
 H         -1.6576154286        2.8646271789       -1.1469353539
 H         -2.9990750046        1.6838979437       -1.1378000465
 H         -2.7582724029        2.7464302006        0.2519870771
 H         -1.1881021205       -0.2240112171        1.5624441520
 H         -0.4240549338       -3.4363570251       -1.7050077067
 H         -2.1425541178       -3.1698977204       -1.0551383396
 H          1.6984545396       -3.0381181909       -0.1407119089
