25
 energy: 41.118956922039 xtb: 6.6.1 (8d0f1dd)
C            3.05191134773910        2.46223287060717        0.49334455881814
N            2.39312364238910       -0.37255572240888       -0.37499794908074
C            2.56518548542195       -1.61024578470155       -0.00777525345805
N            1.36421409958253       -2.28748878111576        0.19805590669573
C            0.38603839116478       -1.39027564709788       -0.08626108269301
C            1.03978842871140       -0.19710424274084       -0.38730169281790
C            0.29707448870602        0.98934910450639       -0.70825259179537
O            0.69629157497140        1.94363138883704       -1.32808722898370
N           -1.01836363255382        0.86512535103734       -0.16537783400190
C           -1.77644375389833        2.08334882872148        0.08656645067362
C           -1.70493444416229       -0.30952674662425       -0.01949710030553
O           -2.89981884169205       -0.32035773205207        0.18423266713015
N           -0.97785302752306       -1.51539544674009       -0.10565314607625
C           -1.81641017317233       -2.70532609785818       -0.14419903129126
H            3.94577176598249        2.48334385793590        1.06633953884983
H            3.01976281616422        2.58096906009138       -0.57501800000868
H            2.09568508247484        2.41876322910730        0.95801846248226
H            3.50485630054745       -2.09984082831037        0.16887640988841
H           -1.11934399648891        2.91936100117449       -0.05645256342707
H           -2.61336899098280        2.20492848958819       -0.56835991665927
H           -2.12753259481069        2.12290955846219        1.11924611103803
H           -1.77312145263993       -3.30225250721869        0.77603779449060
H           -1.62445504691793       -3.35498556451566       -0.99781842579763
H           -2.82307742701555       -2.28592658537202       -0.29334116786664
H            1.27316107530545       -3.28161861616950        0.33434011048201
