25
 energy: 28.949921393904 xtb: 6.6.1 (8d0f1dd)
C            3.00832211560429        1.54813944261033        0.13976789179319
N            2.44297206480917        0.04627845333971       -0.00939495388685
C            2.72314486374502       -1.35060865538938        0.15474344481214
N            1.52493282964144       -2.08485302100974        0.09282886832059
C            0.47454106366161       -1.23023167537736       -0.00765239686620
C            1.04349615636590        0.03551231362226       -0.06284074246449
C            0.22636289789075        1.15495149223758       -0.24112600964343
O            0.57548898904820        2.29221559927401       -0.58888419355123
N           -1.16042222248828        0.92788936543731       -0.05459260880658
C           -2.00150689827345        2.11315585800634       -0.01940758737195
C           -1.74881930532062       -0.28501006065162       -0.05371791734152
O           -2.95333102474728       -0.41027442320820       -0.03500864358797
N           -0.89710113640499       -1.41733938464504       -0.05581068840826
C           -1.61521472048861       -2.67646951457097       -0.08301868928331
H            3.56242477179818        1.81688364836936        1.02474796940913
H            3.65358942798953        1.79669919667719       -0.72346643953668
H            2.10940070588723        2.17432284909466        0.13211368200597
H            3.61709760170967       -1.94147404753136        0.12020603987452
H           -1.38937799629476        2.99454062249595       -0.03086464737887
H           -2.60710789037138        2.18410212982921       -0.90086756122623
H           -2.55647023751226        2.15986050085294        0.90559541896158
H           -1.43566837542806       -3.26396270123923        0.81973524041685
H           -1.36876331993424       -3.26411193583282       -0.96810541783308
H           -2.67957043453149       -2.39951920110607       -0.12615067901936
H            1.45812746368535       -3.09837260951540        0.10607902248736
