  25
        -42.16322348
 C          3.4124842074        0.8590339905        0.1364901479
 N          2.4147577960       -0.1713722734        0.0659941755
 C          2.6088078424       -1.4840000691        0.0026212301
 N          1.4152764850       -2.1283565347       -0.0394805246
 C          0.4338334722       -1.1899036690        0.0017540902
 C          1.0568165643        0.0616257810        0.0673369337
 C          0.3261090211        1.2606424021        0.0863722226
 O         -1.2010373888        3.3588099590       -0.3997426970
 N         -0.9976830757        1.0609751032        0.0753994040
 C         -1.8490584524        2.2706136792        0.1171409695
 C         -1.6939392394       -0.1505242232        0.0387144471
 O         -2.8905995480       -0.2149877670        0.0450757416
 N         -0.9015952260       -1.3166853110       -0.0170897413
 C         -1.5579248401       -2.6060992832       -0.1117810078
 H          3.7794548974        0.9667933887        1.1590685233
 H          4.2517936224        0.6218633693       -0.5156967645
 H          2.9562551547        1.7982572649       -0.1712146049
 H          3.5620115844       -1.9737347399       -0.0134430282
 H         -2.1395788490        2.4274002016        1.1713424934
 H         -0.2438078312        3.2460023255       -0.2523131987
 H         -2.7576235902        2.0784497600       -0.4643316881
 H         -1.3296943941       -3.2157383137        0.7628044218
 H         -1.2492984196       -3.1221673429       -1.0211298383
 H         -2.6316925498       -2.4260962382       -0.1490671719
 H          1.3037951495       -3.1315129959       -0.0903784943
