25
 energy: -3.490243719068 xtb: 6.6.1 (8d0f1dd)
C            3.31656492177082        1.14532173133202        0.09529164674953
N            2.32124282174229        0.11983410010271        0.01815524813512
C            2.60049504667212       -1.24750498542619        0.01986566889937
N            1.39374317759410       -1.91867346678440       -0.02887798628090
C            0.38869003643528       -1.01930293605697       -0.01519226030375
C            0.90859801475690        0.26679452506535        0.01790512485081
C            0.03189932473925        1.38479096751846        0.03439723040736
O            0.37301088053453        2.57063859035647        0.06287359063169
N           -1.38935735527038        1.05652179112342       -0.02951122027027
C           -2.32535812668154        2.18492719034237       -0.07161599327294
C           -1.91243065321614       -0.19908298459925       -0.01170757717830
O           -3.09442618415103       -0.44567430254358       -0.03469203699921
N           -0.96023498347379       -1.26192906563151       -0.01018084917415
C           -1.42544708143423       -2.63344502260398       -0.05112960351092
H            3.74817211865030        1.22996784042779        1.10576979871321
H            4.14005126956072        0.93267491011368       -0.59788108953966
H            2.86036371890306        2.08887263543208       -0.18119483154955
H            3.57246497767822       -1.69731503442457        0.01493017109372
H           -1.74279269673450        3.10221455511505       -0.04137531874361
H           -2.92290488393544        2.18886095218889       -0.98253611129379
H           -2.99721495247649        2.16539258169127        0.78482400074094
H           -1.06444281290247       -3.20182115479171        0.81046471989671
H           -1.11086704852147       -3.13819279668475       -0.97095263061599
H           -2.51091488699859       -2.59457655348373       -0.01130527524494
H            1.31756690369448       -2.92403928939124       -0.05222084916163
