25
 energy: 71.007405540829 xtb: 6.6.1 (8d0f1dd)
C            3.68194293073075        0.89019164590715        0.11933450138098
N            2.59151172085364       -0.02669506754979        0.05652889229920
C            2.83246734171128       -1.35545682320517       -0.11504773911754
N            1.66745865157250       -2.04720981534814       -0.07728606757020
C            0.59880446719835       -1.15588389638265       -0.01059131882919
C            1.19952116091202        0.16424251071101        0.12209097720974
C            0.53891685174453        1.32059161898953        0.06731547929239
O            0.37299498370868        2.43629551049729        0.42289769603323
N           -2.40347949651604        1.35028750568228       -0.23196198087941
C           -3.04399246519645        2.61135376164342       -0.19864592437888
C           -2.87056538272592        0.28166136357704        0.02949583921106
O           -3.44272711850216       -0.71038526634632        0.17519242945951
N           -0.66263446301074       -1.34995474085669        0.00239039942150
C           -1.13648491969495       -2.69166769635208       -0.02081968735663
H            3.70528154372997        1.48756343137146        1.02489708119735
H            4.56876669401536        0.26328027311101        0.08101206540730
H            3.75480321624063        1.59404643939378       -0.70176724482703
H            3.79590931701654       -1.79698238992329       -0.21325047314943
H           -2.26436634952771        3.36216428951978       -0.05354345625694
H           -3.57709730722706        2.79667373308114       -1.13646952490713
H           -3.77640952250216        2.66930894521082        0.60736808170067
H           -0.47547525035214       -3.26015898188244        0.62452882268555
H           -1.10741922387040       -3.09767523661752       -1.03686042843668
H           -2.15949723093802       -2.78394416502032        0.35326209214517
H            1.62365745848485       -3.04411911916131       -0.18314272857211
