25
 energy: 71.544254854623 xtb: 6.6.1 (8d0f1dd)
C            3.66752057677586        0.90219834824840        0.10660675647539
N            2.56880008805167       -0.00612298251192        0.05586500082863
C            2.80630038140306       -1.33334061298331       -0.12070042936171
N            1.64121527884788       -2.02798202697983       -0.07931422769819
C            0.57776351189260       -1.13279217386949       -0.01312157214156
C            1.17578910822162        0.18539077675403        0.11480266647965
C            0.50083257326255        1.33417784752601        0.08792751559334
O            0.37547629764528        2.46764926333402        0.40542449339120
N           -2.33274910997377        1.30949195903992       -0.22929975624559
C           -2.98666299204426        2.56835693281361       -0.20139446128062
C           -2.80164881543786        0.24072855521921        0.03528179134572
O           -3.40210516657491       -0.73407666577201        0.19074414562392
N           -0.68415104217392       -1.32575244086955        0.00254764103489
C           -1.15396066427154       -2.67272371639730       -0.02191861238930
H            3.71665313358955        1.45263613521951        1.03684878663297
H            4.56609220445241        0.27416904689228       -0.00291795030265
H            3.69366473836340        1.65898865527073       -0.67045459531731
H            3.76686593734814       -1.77739094223419       -0.22845139734997
H           -2.23240323420664        3.33298245429706       -0.04999129806108
H           -3.51033728753650        2.76366183970408       -1.13873800605875
H           -3.71515372851462        2.64260371942862        0.60016530042941
H           -0.51598822134130       -3.24426019321655        0.64809419080813
H           -1.09902968457217       -3.07602700372460       -1.03937749233482
H           -2.18833028758415       -2.77909932323873        0.32129539309537
H            1.59859047851007       -3.02523743011117       -0.17106072481205
