25
 energy: 28.224932794592 xtb: 6.6.1 (8d0f1dd)
C            3.45816871599164        1.07143324385027        0.09919247353036
N            2.39517971751926        0.10812521379606       -0.01106619124416
C            2.63714670714905       -1.25446558548209       -0.02315792946552
N            1.43323627391816       -1.90649206696608       -0.09196464873195
C            0.42052675967525       -1.00243390377573       -0.02396854199679
C            0.95438875817001        0.29189190585618        0.03841006552667
C            0.02897301431784        1.37636070790736        0.10954434522355
O            0.20528063904376        2.56751547923509        0.22872697615120
N           -1.63577180566304        1.09394129821097       -0.07991484958789
C           -2.51397508847381        2.29690298406737       -0.12305259593675
C           -2.09877694750110       -0.15014344401061        0.00592011763963
O           -3.20074861067949       -0.60470577899889        0.05039672478071
N           -0.93245018800041       -1.21339910969146        0.01700235719846
C           -1.32935963993959       -2.62008386162078       -0.03996983997662
H            3.74714024504238        1.26336557735661        1.14346908128498
H            4.36344772418046        0.69366454006866       -0.41809200141066
H            3.18937992779156        2.01438296313248       -0.37303144769163
H            3.57788249294771       -1.76124788399325       -0.11076878434693
H           -1.88801661956140        3.17950214910994       -0.05296288305069
H           -3.08349015128012        2.40743597346939       -1.04836148632703
H           -3.22176937564208        2.35535527952371        0.70564927431957
H           -0.85887279838362       -3.21172750285029        0.75725634988696
H           -1.06011485105280       -3.06743885684950       -1.00927503025319
H           -2.40794725642008       -2.68076772658448        0.10591726442746
H            1.37993513289467       -2.91457160619822       -0.12910495630745
