25
 energy: 59.619714360315 xtb: 6.6.1 (8d0f1dd)
C            3.79256745366067        0.88224177580586        0.10172325656872
N            2.81232538305614       -0.15428497813629       -0.00145437471393
C            3.07380176100530       -1.48263085889726       -0.05537740596954
N            1.89584617156321       -2.16954673631350       -0.09334823324870
C            0.81226942719052       -1.29826705695793        0.03716522906515
C            1.42276984682787        0.03725987957200        0.12456615869200
C            0.78657020564336        1.18814809591739        0.20211687761802
O            0.10239109480453        2.14648935402815        0.32730338836713
N           -3.12654056533299        1.55307618228590       -0.27707594207455
C           -3.34468240334074        2.94630922504224       -0.18954576556992
C           -3.45976004226972        0.45156760145855       -0.00482013853236
O           -3.66100288275761       -0.67673809881525        0.17363944082530
N           -0.43675196822074       -1.50563311126855        0.05029755010219
C           -1.03683487572767       -2.80556668637484       -0.03072403062742
H            3.80836976425563        1.32639191524259        1.09838866907366
H            4.76887087382279        0.46837811674940       -0.12120907315881
H            3.54926048167521        1.67116861301309       -0.62107654784295
H            4.04417397909956       -1.91803869835733       -0.10135831174960
H           -2.35954951500084        3.39967252791727       -0.08673360926087
H           -3.81841578636990        3.32302118903475       -1.10080200754739
H           -3.95635946468337        3.21047530265389        0.67497883463522
H           -0.56773636482068       -3.53386205118056        0.64295300106220
H           -1.01284667029991       -3.19771789383604       -1.05504685455329
H           -2.08053259563842       -2.67305295064249        0.25260466912667
H            1.83330211090804       -3.17319375278741       -0.12429630158397
