  25
        -41.97600337
 C          5.1305641148       -0.9651207867        0.0749761681
 N          3.7498220110       -1.0857058390        0.0096662609
 C          3.0121622457       -2.1173752693       -0.2856514280
 N          1.7360033320       -2.1769266004       -0.3231868788
 C         -0.1891395935       -0.1505227093        0.1620316802
 C          0.2598361531        2.3604902323        0.8702684295
 C         -0.5018911246        1.2618902602        0.1698639249
 O          0.3435480382        2.2617842469       -0.3969398208
 N         -1.9081370561        1.3708174228       -0.0140169226
 C         -2.6555474488        2.5945442983       -0.0429346158
 C         -2.4482355099        0.1212619448       -0.0310013596
 O         -3.5945898005       -0.2120396911       -0.1219550302
 N         -1.3368529419       -0.7844842593        0.0790661136
 C         -1.5479223866       -2.2039127701        0.0823407701
 H          5.4059746694       -0.5814664246        1.0653867439
 H          5.6709193527       -1.9031744508       -0.1093145095
 H          5.4582101677       -0.2126888583       -0.6551263702
 H          3.5123045897       -3.0687172171       -0.5405472641
 H         -2.3369361837        3.2465291112        0.7775391719
 H         -2.4976247529        3.1193931425       -0.9919909251
 H         -3.7141420184        2.3516873084        0.0648209697
 H         -1.2756567553       -2.6250989263        1.0523101581
 H         -0.9330594294       -2.6807535305       -0.6833427308
 H         -2.6053087318       -2.3912068685       -0.1109426811
 H          1.1518138014       -1.3394856246       -0.0941859964
