72
 energy: -99.274588616167 gnorm: 0.006587335625 xtb: 6.6.1 (8d0f1dd)
N           -1.99146824820023        2.96989355251021        2.20530783012165
C           -1.96019259231329        2.22163975476235        1.20310087018492
C           -3.12363275540779        1.97672825893862        0.28241910204134
C           -3.50711578042440        0.50602353098567        0.33226633947508
C           -4.39792141310496       -0.01267440079721       -0.61026789454430
C           -4.80018807433944       -1.33642582753479       -0.57418052287526
O           -5.66150193994979       -1.91411897596526       -1.44333323016270
C           -6.29504208263952       -1.11374962389720       -2.41209614555356
C           -4.29580638311366       -2.19308940927939        0.43769197499291
O           -4.74222216374203       -3.46946421642767        0.39739555726809
C           -4.37140249543017       -4.35055192792472        1.43015357564127
C           -3.41368792330437       -1.67399470677423        1.36987251587186
C           -3.02701029502877       -0.33993224017749        1.31781600390329
C           -2.62448833574781        2.35753920779190       -1.13698363250227
C           -1.66978563061959        1.33643983714194       -1.78233348634514
C           -0.32206069432991        1.31777054886789       -1.17112992328917
N            0.36417654087246        0.22103580018813       -0.85613104035423
C            1.73304712257912        0.31272043642941       -0.40898690754692
C            2.73535288490099       -0.01496455299610       -1.52765898495180
C            4.13540099070328       -0.02998263118001       -0.97336791717232
C            5.08290065771316        0.87874467707522       -1.41981141404052
C            6.38221699054986        0.89091209792939       -0.92745440804358
C            6.76324045283927       -0.02363478327126        0.04504871831605
O            7.99057438960955       -0.14404051258189        0.62143099442780
C            8.99258495437062        0.78349850818248        0.26225624214342
C            5.76157812090833       -0.90884530807210        0.45825253874634
O            6.11148237107331       -1.87523247135351        1.54322255335694
C            7.02464288886245       -2.92162151617059        1.14391026313181
C            4.47310583969976       -0.96765038242751        0.01304149009838
C           -0.19891626384985       -1.09936042704506       -1.00165281899042
C           -4.38654300115264        2.81484907500154        0.63845770548030
C           -4.94074390684599        2.43470379222053        2.00976303067265
C           -4.14592714060958        4.32114030055088        0.58067282748777
H           -4.79359265477023        0.63597335425465       -1.37407026222217
H           -6.86844597457928       -0.30342915152096       -1.95144180821894
H           -6.97465870421410       -1.77904630926182       -2.94112145372381
H           -5.57554393384799       -0.69481318599480       -3.12366811304578
H           -4.68554690672424       -3.97625789085914        2.40929939639829
H           -4.88930621251780       -5.28393935374966        1.21814265819366
H           -3.29115878417092       -4.53054533957232        1.43786928202037
H           -3.02737754505718       -2.29678506093686        2.16046298446527
H           -2.36364463920192        0.03575249646422        2.08152911716919
H           -3.48873008522716        2.47030294875060       -1.79119747067920
H           -2.12475127264799        3.32555096996594       -1.08287809049593
H           -2.12813949980960        0.34930888735074       -1.76643278748428
H           -1.55587817790644        1.63533535389330       -2.83292930727648
H           -1.05109901778343        1.69522650753008        0.85860580914601
H            0.20142849420398        2.25732142374183       -1.08024342380649
H            1.89237617743490       -0.38970273129824        0.41396986774093
H            1.92660361242585        1.32227960759080       -0.04090200326345
H            2.64830905682909        0.72509311358884       -2.32438187574870
H            2.49873927932434       -0.99692897317158       -1.94305962841099
H            4.81697568997511        1.60099782282474       -2.17915711531647
H            7.08515983376087        1.61438210956601       -1.30623459714525
H            8.68362575769378        1.80723904858909        0.48692737335681
H            9.24852349903193        0.69959269891018       -0.79747200584718
H            9.85979787432783        0.52588112729825        0.86732830939285
H            7.98015004383227       -2.44719263342038        0.92222118256476
H            7.14176934440218       -3.60609579123805        1.98195325702635
H            6.65970959858497       -3.45167866733009        0.26312590745141
H            5.24681798223933       -2.26731450867185        1.77712832853783
H           -0.41915288682676       -1.32244252482089       -2.04773458121117
H           -1.12231000118242       -1.18784677652678       -0.42284191673725
H            0.51452853918813       -1.83238214792731       -0.63437772519229
H           -5.14581817793371        2.56334019172014       -0.11135002766266
H           -4.22380473746405        2.68906839929953        2.78347510237524
H           -5.15835913676837        1.37077712096577        2.06406576007742
H           -5.86114918749748        2.98209891950730        2.19553748953065
H           -3.36746465974425        4.60358819913341        1.28216291874090
H           -3.86775838315774        4.64994049135784       -0.41710606645623
H           -5.06026526398657        4.83892148114167        0.85876036616868
H           -1.12869042781146        3.07826283072027        2.73060818497109
