72
 energy: -99.357465558578 gnorm: 0.008024978258 xtb: 6.6.1 (8d0f1dd)
N           -1.47018699050415        3.06243201789567        1.88384373681367
C           -2.49919686370048        2.37407844751739        1.70913892024347
C           -3.22443623414487        1.99894142804150        0.43240531042391
C           -3.68896310310430        0.55505921644270        0.46737893896042
C           -4.58034757304757        0.09175488828776       -0.50344535721732
C           -5.01633517590143       -1.22271847194720       -0.52341047172834
O           -5.87605514718698       -1.74667814269584       -1.41817209489339
C           -6.43599962230696       -0.92021050100517       -2.41125175844923
C           -4.54242170245847       -2.13207329596206        0.46277159785827
O           -5.02314511982169       -3.38507432605379        0.37379448294217
C           -4.64233051622360       -4.33922668384297        1.33813269393794
C           -3.64178255316665       -1.67117013762061        1.41027513017476
C           -3.21982375006301       -0.34905520398207        1.40969271595778
C           -2.41216125033496        2.25341296275837       -0.85749802262542
C           -1.45980292988979        1.12219786937420       -1.26028664219082
C           -0.30114032419679        0.91180061721201       -0.28316358614193
N            0.60793594014249       -0.11039121465431       -0.74499234777349
C            1.97240246731636       -0.03237364358865       -0.28051695929989
C            2.95721755437244       -0.39336877473678       -1.41092057827432
C            4.37244587700404       -0.17547079482784       -0.96615045491410
C            5.00042093529846        1.04590030809085       -1.17456766635121
C            6.30038223816908        1.26157163685676       -0.74893697983692
C            7.00549263506144        0.25854704273081       -0.09532112009660
O            8.26680229836157        0.35246137146183        0.35726019288447
C            8.98178640041898        1.55236040968125        0.16975736899839
C            6.36899232590257       -0.99632516327465        0.13113254045380
O            7.12163861155640       -1.91003852578972        0.76965024889006
C            6.58923315804631       -3.18697677944228        1.03186331009309
C            5.06632649633762       -1.18654511768144       -0.30709014372681
C            0.04734986244988       -1.43840588592718       -0.78600063234065
C           -4.49597933608422        2.95738166644916        0.47689953901257
C           -5.32092921951453        2.66291394392655        1.64922075073666
C           -4.13386511038097        4.43807453770190        0.39163966958255
H           -4.93847021199531        0.76904117432870       -1.26179747248390
H           -7.01439929395995       -0.10121839091884       -1.97266314300287
H           -7.10167265635073       -1.56322531941610       -2.98362947624353
H           -5.66791688199501       -0.51341237446781       -3.07667670622974
H           -4.92167608052672       -4.02265659543429        2.34731613774456
H           -5.18536767552222       -5.24663627803365        1.08126724849228
H           -3.56676337900119       -4.53829816243100        1.30151247448652
H           -3.25971172783609       -2.33813652766344        2.16603184382326
H           -2.51295476377442       -0.04173049052516        2.16448774430502
H           -3.11240682131691        2.39386596835115       -1.68354095155710
H           -1.84589304298681        3.18208551161606       -0.75862111105621
H           -2.02876930541328        0.19812639996661       -1.35690735922931
H           -1.03768135513135        1.36033384541583       -2.23859110817974
H           -0.70183705851551        0.65499161383188        0.71026133573685
H            0.26104152091975        1.84381859317798       -0.19284377465417
H            2.14578087493701       -0.69849376811970        0.57694904487853
H            2.18318486554559        0.98835144129345        0.04358765523302
H            2.73298864263515        0.23876877103560       -2.27038665170335
H            2.81360176508209       -1.43329880000102       -1.70481170220418
H            4.47487240458154        1.83813481977212       -1.68512364749535
H            6.76258544217478        2.21736974410868       -0.93431830358113
H            8.49388782727709        2.39168482743592        0.67427389233596
H            9.10209275527395        1.78402760953543       -0.89269680777332
H            9.95998694175670        1.38216175146023        0.61545107075311
H            7.37804110474407       -3.73212763805535        1.54670664273481
H            5.70812307373788       -3.12843911948212        1.67835502273699
H            6.33111797591143       -3.71102635233250        0.10658128893078
H            4.57900030913793       -2.13571366441018       -0.14814408822633
H           -0.64190026366861       -1.52851482680186       -1.62519392839697
H           -0.50001163682905       -1.67636871162322        0.13605341147645
H            0.83874949125859       -2.17011698205588       -0.92016584548725
H           -5.07039671968791        2.69207316367920       -0.42317936758549
H           -5.56264733463952        3.42800600737191        2.36075342922462
H           -3.02254935147072        2.05974380798693        2.60488726346562
H           -5.69266171376452        1.66918754033871        1.81550947348221
H           -3.48526499712698        4.73084895189199        1.21357089568212
H           -3.64074721119728        4.67493405185070       -0.54687234819308
H           -5.04234323008207        5.03234176859649        0.44926516054473
H           -0.97802096360464        3.41087045982578        1.06147526771297
