  72
        -99.31804802
 N         -1.8314599430        2.9231049498        2.4127044728
 C         -1.9069665121        2.1177207020        1.4597725708
 C         -3.0927461353        2.0204837983        0.5370017268
 C         -3.5709204646        0.5799149655        0.4812387548
 C         -4.4135608598        0.1548113789       -0.5450883399
 C         -4.8998955981       -1.1428091067       -0.5930282322
 O         -5.7144720437       -1.6347090639       -1.5444301657
 C         -6.1616880140       -0.7925412166       -2.5809047347
 C         -4.5358759927       -2.0662071730        0.4277384327
 O         -5.0476068801       -3.3020409615        0.2981534006
 C         -4.7631043115       -4.2734369927        1.2782300479
 C         -3.7103570003       -1.6303186741        1.4546827037
 C         -3.2402605728       -0.3267274605        1.4811953771
 C         -2.5834976173        2.4880587670       -0.8518583990
 C         -1.5836580092        1.5431142320       -1.5267002961
 C         -0.1866861459        1.6981252086       -1.0345740513
 N          0.5756817049        0.7128831936       -0.8785611356
 C          1.9411319675        0.8604754773       -0.4861090174
 C          2.8516850151        0.4193673020       -1.6484402669
 C          4.2494066980        0.1681715462       -1.1704321001
 C          5.2370098060        1.1276765599       -1.3556217320
 C          6.5274865327        0.9244902180       -0.8968385314
 C          6.8624932307       -0.2481941414       -0.2382643530
 O          8.0724197918       -0.5615473640        0.2523833535
 C          9.1326574354        0.3576001507        0.1131655534
 C          5.8615679491       -1.2534316436       -0.0402075458
 O          6.3208954754       -2.3443078148        0.5963663643
 C          5.4704054341       -3.4328914902        0.8628645740
 C          4.5843099469       -1.0061733108       -0.5062841404
 C          2.5143310662       -2.6775642228       -0.3464948381
 C         -4.3016577716        2.9012332167        0.9771484957
 C         -4.8222638631        2.4915502651        2.3526664044
 C         -4.0007365973        4.3974334261        0.9722583913
 H         -4.7012766906        0.8485299019       -1.3172897845
 H         -6.7362805723        0.0527443459       -2.1904780310
 H         -6.8081689799       -1.4111191322       -3.2004293722
 H         -5.3277596694       -0.4224753359       -3.1853948637
 H         -5.1306209967       -3.9685664758        2.2624913687
 H         -5.2876499862       -5.1720643786        0.9596029012
 H         -3.6902928104       -4.4804966268        1.3367406289
 H         -3.4325927481       -2.3018108947        2.2505323939
 H         -2.6224260041       -0.0169746016        2.3095276593
 H         -3.4459282274        2.6163040505       -1.5059149312
 H         -2.1164892565        3.4674323524       -0.7361156400
 H         -1.8886525255        0.5006691078       -1.4340984803
 H         -1.5579202017        1.7889644060       -2.5936489824
 H         -1.0958464640        1.4322995009        1.1756312420
 H          0.1471042464        2.7321759361       -0.8558624968
 H          2.1080748987        0.2019868101        0.3716480276
 H          2.1884552267        1.8928391463       -0.1907834734
 H          2.8499933315        1.1984649900       -2.4117663486
 H          2.4331790389       -0.4852142638       -2.0906265871
 H          4.9960437012        2.0443785334       -1.8708959675
 H          7.2701770272        1.6880172012       -1.0608265557
 H          8.9088245458        1.3035880242        0.6145826310
 H          9.3619555759        0.5457916286       -0.9395168024
 H          9.9896130351       -0.1117789232        0.5919913062
 H          6.1022949886       -4.1836122688        1.3341848190
 H          4.6710167279       -3.1513089798        1.5530717168
 H          5.0435347026       -3.8437522413       -0.0548946330
 H          3.6881201190       -1.8056886017       -0.3875034289
 H          2.7465940486       -3.4262998545       -1.0849365212
 H          1.6898486861       -2.0379087370       -0.6033884781
 H          2.4946686696       -3.0405609473        0.6670767978
 H         -5.0975452245        2.7107390945        0.2467853060
 H         -4.0737755665        2.7003801769        3.1114042728
 H         -5.0723587020        1.4337204740        2.3823780373
 H         -5.7177779683        3.0605651572        2.5883754800
 H         -3.1616807660        4.6118635272        1.6272146940
 H         -3.7837766537        4.7670911376       -0.0260447815
 H         -4.8690600669        4.9361359232        1.3430392329
 H         -0.9772987763        2.9402531026        2.9604666084
