  72
        -99.32704509
 N         -2.2212376193        2.8980381599        2.6846890722
 C         -2.0201921996        2.1980641812        1.6700125303
 C         -2.9951587838        2.0486244792        0.5335267458
 C         -3.5101519322        0.6182191645        0.4842278388
 C         -4.3440709228        0.2205878996       -0.5625665476
 C         -4.8580419401       -1.0635834205       -0.6342126545
 O         -5.6936614906       -1.5144626599       -1.5914864164
 C         -6.2269014834       -0.6042479472       -2.5253675547
 C         -4.5036512469       -2.0156066766        0.3605454746
 O         -5.0284879683       -3.2459753370        0.1998101591
 C         -4.7703988971       -4.2345672102        1.1695387875
 C         -3.6745824051       -1.6152968307        1.3967373675
 C         -3.1934630620       -0.3136149062        1.4617428740
 C         -2.2021483876        2.3642045990       -0.7638237893
 C         -1.2217624751        1.2648714469       -1.2123068820
 C          0.0030821099        1.1897302591       -0.3740959282
 N          0.5837285911        0.0774318322        0.0640597192
 C          1.7235706748        0.0722591582        0.7432549479
 C          3.5594818409       -0.5010118286       -2.7515071157
 C          4.6079704476       -0.3511710939       -1.8758423910
 C          5.1927460580        0.9241698692       -1.6366214767
 C          6.2692329938        1.0702461549       -0.7999451080
 C          6.8166220371       -0.0319384344       -0.1359163455
 O          7.8718253212       -0.0049014972        0.6852564092
 C          8.5727449406        1.2011791243        0.8892108159
 C          6.2275132269       -1.3243773842       -0.3290024205
 O          6.8139994007       -2.3135218122        0.3770379359
 C          6.3557415146       -3.6343884682        0.2107936955
 C          5.1613667955       -1.4668292767       -1.1794015215
 C         -0.0597524254       -1.2017178923       -0.1837751034
 C         -4.2182682632        3.0060706943        0.6539984186
 C         -5.0743022947        2.6665239351        1.8720797989
 C         -3.8290938227        4.4811271516        0.6902900351
 H         -4.6066360430        0.9318532699       -1.3277915237
 H         -6.7401784572        0.2240027215       -2.0276460824
 H         -6.9461196824       -1.1740371931       -3.1105517719
 H         -5.4529764368       -0.2098843510       -3.1916523363
 H         -5.1342283524       -3.9332860761        2.1562459243
 H         -5.3141872091       -5.1171142157        0.8385808683
 H         -3.7025936382       -4.4684386421        1.2291235236
 H         -3.4070614775       -2.3085980734        2.1777332044
 H         -2.5832476070       -0.0325017097        2.3061059186
 H         -2.9157805678        2.5252320192       -1.5714258674
 H         -1.6510149534        3.2940360296       -0.6202699617
 H         -1.7476291176        0.3125269082       -1.2516070519
 H         -0.9188245995        1.5166602717       -2.2371713074
 H         -1.0803396809        1.6503860796        1.4824238074
 H          0.5456665966        2.1078413942       -0.2064781417
 H          2.1222804983       -0.8433246145        1.1256681853
 H          2.2364679439        0.9953073679        0.9276611593
 H          3.1492524620        0.3435121682       -3.2743260767
 H          3.1492341097       -1.4691944519       -2.9770855431
 H          4.7874084844        1.7834954260       -2.1474180245
 H          6.7008523156        2.0483074858       -0.6580564657
 H          7.9515082492        1.9434718173        1.3998196035
 H          8.9384885959        1.6165703305       -0.0539967525
 H          9.4196868307        0.9435204319        1.5227906329
 H          6.9892264211       -4.2467504722        0.8494252406
 H          5.3129328162       -3.7393843167        0.5270390702
 H          6.4576116494       -3.9650545374       -0.8270014248
 H          4.7201671698       -2.4346424252       -1.3551242385
 H         -0.1208250582       -1.3873226755       -1.2556581503
 H         -1.0666256463       -1.2088085223        0.2378463974
 H          0.5202343129       -1.9976490833        0.2756404655
 H         -4.8300583589        2.8452893241       -0.2408740273
 H         -4.5120676983        2.8465917745        2.7828920940
 H         -5.3912864316        1.6264644637        1.8529389578
 H         -5.9609552722        3.2951461834        1.8824874312
 H         -3.1897047951        4.6829619336        1.5441207934
 H         -3.3211198571        4.7886383998       -0.2198940286
 H         -4.7280657857        5.0840649158        0.7899069433
 H         -1.4840544720        2.9536146398        3.3802227854
