25
 energy: 0.000000000000 xtb: 6.6.1 (8d0f1dd)
C            3.23720163006194        1.16630919979326        0.08434469647475
N            2.29877817382611        0.07527477071623        0.03981603040599
C            2.58028210190900       -1.21425402444508        0.03006176031096
N            1.43813958087363       -1.93419271955128        0.00098261760884
C            0.39035688448383       -1.05887472636071       -0.00790371836672
C            0.93510056364412        0.21347819449412        0.01709077491437
C            0.09450143893243        1.40504303904423       -0.00410947031874
O            0.49712751527797        2.54126714362870       -0.00342325688240
N           -1.25076640035757        1.06271879480407       -0.03085478223738
C           -2.21907211982101        2.15522099834493       -0.05001256985998
C           -1.81739487048744       -0.20012725993278       -0.04692818574614
O           -2.99983886758376       -0.37846417018721       -0.07008878229737
N           -0.92618586207120       -1.30210215599479       -0.03682761578324
C           -1.46982264913417       -2.64643102187190       -0.06029820460571
H            3.71247264356769        1.21471455160235        1.06488849150277
H            4.00791497605742        1.03430808813993       -0.67357694370751
H            2.69910007168542        2.09770118228144       -0.09130154882931
H            3.56654120610678       -1.63682992603973        0.04233140067262
H           -1.67107961066214        3.09322851271934       -0.02552706933167
H           -2.82428953597071        2.09428624779827       -0.95318082946668
H           -2.87644029173232        2.07745725625962        0.81450067533302
H           -1.17061996399332       -3.19584890659852        0.83242232437030
H           -1.14560257411436       -3.17511610292205       -0.95688275822323
H           -2.55549792440841       -2.55659984320617       -0.07459039797972
H            1.38130855184625       -2.94313852034425       -0.01389874181052
25
 energy: -0.766753727423 xtb: 6.6.1 (8d0f1dd)
C            3.27200887712849        1.15842341061449        0.09471955410342
N            2.32377989624955        0.08776161129076        0.04342247440294
C            2.60855130860041       -1.24062117747295        0.02992304618806
N            1.43446264974089       -1.94233144999200       -0.00153771600845
C            0.40762172025521       -1.05238026504341       -0.00640397764698
C            0.94521627588080        0.22440229064460        0.02063051730491
C            0.11619224347052        1.40271930613131       -0.00137596264088
O            0.52419877122715        2.56420772942800        0.01236429991429
N           -1.25456027780134        1.06658062074951       -0.05045069306827
C           -2.24733511653706        2.14923582748724       -0.08191538233136
C           -1.81041616594042       -0.18779814715436       -0.04930631499466
O           -3.00618997187568       -0.37016663746316       -0.07288795998935
N           -0.92322753839903       -1.29035850205458       -0.03473701349487
C           -1.46452917180062       -2.63094710780525       -0.05912083175006
H            3.74325152425185        1.20222162649279        1.08001737398165
H            4.04555841159627        1.01100526600206       -0.66065280236149
H            2.73877646040743        2.08853216784422       -0.08915342045459
H            3.58460015586664       -1.67101502427036        0.03718298777057
H           -1.68572908597433        3.08891004612633       -0.05497701969438
H           -3.05538172022353        2.08853649341110       -0.87082824738635
H           -2.90005725912460        2.07100860690636        0.76021138248868
H           -1.16315274635903       -3.18333239245448        0.83285045486930
H           -1.13688364079185       -3.16126017705429       -0.95541513992488
H           -2.54953377228206       -2.53837183553234       -0.07432204342530
H            1.36499284037059       -2.94593368465955       -0.02120366970465
25
 energy: 14.583871223036 xtb: 6.6.1 (8d0f1dd)
C            3.32298159188350        1.13558081268697        0.10977508050453
N            2.35061551422169        0.09408842023839        0.04841110716435
C            2.63195353906249       -1.26583285072540        0.02921948258600
N            1.42927703020115       -1.94260680103041       -0.00600039378718
C            0.42685768813837       -1.04050587408759       -0.00569402070894
C            0.95670682761622        0.24065018920293        0.02605887210541
C            0.13866171195955        1.40401545353159        0.00042502705308
O            0.54694914746695        2.57690358330710        0.04294452536551
N           -1.26745933356458        1.08307889460053       -0.09283647511340
C           -2.29791476767888        2.14512587538603       -0.12181385837264
C           -1.79605141693977       -0.16788544749365       -0.06246726849900
O           -2.99704573308920       -0.36032629767301       -0.07556378688031
N           -0.91621214537700       -1.26899683931455       -0.03260262165451
C           -1.45386853409076       -2.60680558516419       -0.05626852495725
H            3.78902226641338        1.17777437644933        1.10017599649382
H            4.10531806423409        0.96868339704175       -0.63611352316183
H            2.81022686205287        2.07368197679358       -0.08653814976569
H            3.59810729707963       -1.70666733602407        0.02727446467392
H           -1.72611552886885        3.08426761860314       -0.12031476784885
H           -3.34762994071308        2.06088911810756       -0.76072182766539
H           -2.92718825487641        2.06135191922347        0.72316504427341
H           -1.15203796601299       -3.16260920923509        0.83492115972479
H           -1.12415926630023       -3.13924655772719       -0.95225451613883
H           -2.53832526499052       -2.51189387599195       -0.07283549158804
H            1.34954528010860       -2.94368635853322       -0.03331163765564
25
 energy: 26.987176794234 xtb: 6.6.1 (8d0f1dd)
C            3.37040249387932        1.10778741165393        0.12258623224516
N            2.36823107630283        0.09263540575766        0.05104748629090
C            2.63961987220663       -1.27671031028791        0.02673491686891
N            1.42882240224697       -1.93750313626483       -0.01290671480135
C            0.43833035253750       -1.02828339205434       -0.00738932571704
C            0.96651948502973        0.25529006901112        0.02968240410900
C            0.14580240067568        1.41746528287318        0.00348815709461
O            0.55265867317332        2.58840546212937        0.06861067147702
N           -1.28418092742651        1.10315746270536       -0.12601848724061
C           -2.36051502900117        2.14001647233612       -0.14996456514398
C           -1.78820773663200       -0.15410348921416       -0.07103834837602
O           -2.98885505730886       -0.35969287156580       -0.07305840027346
N           -0.90666413964518       -1.24958197523642       -0.03098611061515
C           -1.44227247131733       -2.58620491636547       -0.05280498730029
H            3.82971818429205        1.14432103405796        1.11763560111947
H            4.16215155699565        0.91681996170167       -0.61017670147538
H            2.89102853897415        2.06173503118469       -0.08599252806220
H            3.60207596411806       -1.72811779310168        0.01370364963182
H           -1.80048828384172        3.08573736067372       -0.18219496977118
H           -3.53319090849697        2.02959666247345       -0.70278660751517
H           -2.94382393222698        2.05241804330955        0.72542783268701
H           -1.13913268014924       -3.14059962139389        0.83870103943817
H           -1.11261098741882       -3.11784088858518       -0.94934548793081
H           -2.52658939137890       -2.48877467070770       -0.06834361791338
H            1.34338521234802       -2.93894399291827       -0.04757724267874
25
 energy: 31.675194409266 xtb: 6.6.1 (8d0f1dd)
C            3.39130529827841        1.09232457331510        0.12846737151168
N            2.37365124200335        0.09093100229698        0.05026853376419
C            2.63845966835276       -1.27523614392924        0.02547231701247
N            1.43104008622126       -1.93256196311490       -0.01763702017498
C            0.44139051018366       -1.02234977358817       -0.01018772765545
C            0.97040289251670        0.26167893423274        0.03027747969467
C            0.14719907469581        1.42641861212900        0.00657582614774
O            0.55203822368590        2.59112570606389        0.08255109307483
N           -1.29307442001781        1.11140973438426       -0.13974475647504
C           -2.38953579877634        2.13917875561237       -0.16143754446361
C           -1.78697887181573       -0.15081877816074       -0.07293642436094
O           -2.98550975278242       -0.36421991463031       -0.06658345657126
N           -0.90139679722667       -1.24154292836723       -0.03062567200358
C           -1.43578180312944       -2.57907007927851       -0.05086464974131
H            3.84359010394008        1.12498382679087        1.12702978728529
H            4.18691733323742        0.88527420437275       -0.59576296771589
H            2.93396577375668        2.05522937216017       -0.08794318927164
H            3.60070688911250       -1.73017227300837        0.00438559124364
H           -1.84212176958003        3.08931627176881       -0.20820862614781
H           -3.60157083940511        2.01943714626286       -0.68307897838900
H           -2.94926587954986        2.05492990593975        0.72391890450593
H           -1.13091895097406       -3.13120912701005        0.84090466098771
H           -1.10688098416182       -3.10951813211666       -0.94789407257526
H           -2.52026048431696       -2.48189769419281       -0.06471979493493
H            1.34484392368798       -2.93461263576043       -0.05519278860014
25
 energy: 31.593053786716 xtb: 6.6.1 (8d0f1dd)
C            3.39263402589337        1.08985414147357        0.12932822115100
N            2.37341175905207        0.09038298601512        0.04886239057567
C            2.63627511653044       -1.27187276739026        0.02656864617487
N            1.43232816749991       -1.93092691845460       -0.01863301446808
C            0.44048953043021       -1.02173973910683       -0.01219891314847
C            0.97057761525827        0.26210145952281        0.02896521987612
C            0.14802154450432        1.42851815191171        0.00644454155605
O            0.55132848882412        2.59048251515245        0.08829773382731
N           -1.29461570818781        1.11111857102411       -0.14279350088553
C           -2.39222166216198        2.13941348195660       -0.16256724463289
C           -1.78836165373172       -0.15148591211211       -0.07317170188802
O           -2.98573078575066       -0.36596540023435       -0.06347477445070
N           -0.90095513525569       -1.24095330618093       -0.03145062253620
C           -1.43487754946523       -2.57947906269969       -0.05079514874038
H            3.84154547470987        1.12309276177023        1.12915079800372
H            4.18852050725092        0.87926194285951       -0.59228651304683
H            2.94007358212315        2.05334653426147       -0.08953260729032
H            3.59920330300122       -1.72668717290301        0.00188471336887
H           -1.84620281452316        3.08881623527386       -0.21458516541347
H           -3.60542724995470        2.01901030377944       -0.68060668380985
H           -2.94548607155900        2.05932421570142        0.72598458225231
H           -1.12930018104911       -3.13057519898631        0.84114025266321
H           -1.10600170527666       -3.10960389342513       -0.94776210956251
H           -2.51945617263291       -2.48319621315110       -0.06411734164955
H            1.34644224240702       -2.93320911388585       -0.05561786177898
25
 energy: 30.817113936560 xtb: 6.6.1 (8d0f1dd)
C            3.39202094880633        1.08941250928135        0.12936045644817
N            2.37300154560263        0.09012155133537        0.04698796331669
C            2.63436793653124       -1.26899798212888        0.02869500033079
N            1.43314619337399       -1.93004133449583       -0.01917969368701
C            0.43924300910230       -1.02177750450309       -0.01400260142998
C            0.97025736735321        0.26209139540069        0.02769137773494
C            0.14933477018125        1.42977043234956        0.00688517057360
O            0.55033331662071        2.59033823743549        0.09444377924258
N           -1.29564197741587        1.10955323888063       -0.14445023797223
C           -2.39231274975300        2.13924417206615       -0.16293550871046
C           -1.79012881354684       -0.15234823028416       -0.07268848955109
O           -2.98659644015359       -0.36724885034366       -0.06066357789405
N           -0.90127237249410       -1.24120810440996       -0.03218356074121
C           -1.43480541970914       -2.58051975231392       -0.05099542114878
H            3.83838048382511        1.12369193164086        1.13012418638998
H            4.18845002060757        0.87702546765989       -0.59013102606850
H            2.94169748622110        2.05280752631231       -0.09120759104976
H            3.59784303832179       -1.72382576706384       -0.00116560388082
H           -1.84632495354368        3.08763501879301       -0.21955080692593
H           -3.60002034848254        2.01789860694906       -0.67997526813692
H           -2.94176509821034        2.06386691564993        0.72794789068040
H           -1.12877093537923       -3.13094516430774        0.84107046122805
H           -1.10576500150778       -3.11035291284169       -0.94790747898921
H           -2.51940643940156       -2.48471998430945       -0.06400917994845
H            1.34694910098673       -2.93244281457996       -0.05512634366350
25
 energy: 30.149256549918 xtb: 6.6.1 (8d0f1dd)
C            3.39159509052591        1.08976688889482        0.12933542398352
N            2.37306087226851        0.09014718708459        0.04576185925691
C            2.63380519822745       -1.26821527512007        0.03109165499055
N            1.43329697209346       -1.92985751931363       -0.01930035901363
C            0.43875123377592       -1.02184913956761       -0.01483480063045
C            0.96993778991998        0.26226142337583        0.02700752374623
C            0.15034738378573        1.43014842829385        0.00708263012453
O            0.54934372100353        2.59076916544157        0.09708980639639
N           -1.29650628714586        1.10852275390882       -0.14529431807276
C           -2.39254414604244        2.13882771897292       -0.16332249560964
C           -1.79107137124282       -0.15263230766422       -0.07222614973522
O           -2.98726387746259       -0.36804585326295       -0.05920140241620
N           -0.90154337514662       -1.24146685162178       -0.03246698560106
C           -1.43490356266124       -2.58096774609461       -0.05121010237403
H            3.83703902739738        1.12446614434691        1.13049828253750
H            4.18862311642847        0.87716589991798       -0.58926475713914
H            2.94143472020200        2.05302069185145       -0.09176758714971
H            3.59725096586462       -1.72336533394174       -0.00377893743612
H           -1.84612885563068        3.08674092508072       -0.22219266520402
H           -3.59469163368579        2.01648031303208       -0.67939497274099
H           -2.93988287894387        2.06647433701284        0.72948758992811
H           -1.12887509497990       -3.13132413896999        0.84089454999825
H           -1.10572669265067       -3.11068300718759       -0.94811485504135
H           -2.51948464454003       -2.48512988058678       -0.06424256993284
H            1.34635099657582       -2.93222622171129       -0.05460246671752
25
 energy: 29.194116541924 xtb: 6.6.1 (8d0f1dd)
C            3.39130230409909        1.09037052260700        0.12950418740329
N            2.37339297715129        0.09026938733906        0.04432858676665
C            2.63369219961815       -1.26823369671457        0.03585210715981
N            1.43321400617570       -1.92977783920087       -0.01918432988302
C            0.43850795537941       -1.02186268327238       -0.01562970564563
C            0.96948318340034        0.26270587640715        0.02627699789570
C            0.15165085174115        1.43032797006725        0.00700624429276
O            0.54764825569492        2.59164287352594        0.09833400212427
N           -1.29802049248586        1.10753999314735       -0.14630304762094
C           -2.39371865521206        2.13810887796763       -0.16414506356916
C           -1.79195360979783       -0.15267848877992       -0.07174120327920
O           -2.98800077123169       -0.36925608435031       -0.05783415369321
N           -0.90174205241805       -1.24175915109250       -0.03273912113139
C           -1.43496499295460       -2.58121103804746       -0.05156850848081
H            3.83629327395269        1.12511639766066        1.13092344309121
H            4.18906510958601        0.87829325753899       -0.58858622746245
H            2.94058112600269        2.05348717562172       -0.09165683361742
H            3.59672087127280       -1.72387491362620       -0.00830535084507
H           -1.84669929902891        3.08572820466548       -0.22514830387874
H           -3.58715067242081        2.01419122698404       -0.67766688955060
H           -2.93767838067883        2.06968865189573        0.73175592545944
H           -1.12919978133349       -3.13174054525442        0.84056244771513
H           -1.10565784875155       -3.11089138797958       -0.94847219724836
H           -2.51952482929167       -2.48512808562746       -0.06475997780779
H            1.34497393946737       -2.93202789931018       -0.05376913204715
25
 energy: 28.811163102947 xtb: 6.6.1 (8d0f1dd)
C            3.39137853710669        1.09051596992088        0.12982128104512
N            2.37355340621667        0.09034040220458        0.04413673695892
C            2.63402887432384       -1.26893351865871        0.03941788052341
N            1.43299294117084       -1.92977318117695       -0.01887497675310
C            0.43868272049474       -1.02179773879950       -0.01579650043121
C            0.96931140651093        0.26296931759680        0.02610948961731
C            0.15194281286070        1.43019200751361        0.00651939403006
O            0.54681113682425        2.59208240130076        0.09685273272898
N           -1.29882766525211        1.10760415631978       -0.14663775417294
C           -2.39495271513091        2.13779991284137       -0.16474670114074
C           -1.79197259554817       -0.15247544294240       -0.07192416889429
O           -2.98808440593919       -0.36982659818280       -0.05803614393953
N           -0.90166287405242       -1.24180271440256       -0.03291329743661
C           -1.43489643441592       -2.58104961116985       -0.05177718629780
H            3.83677413812939        1.12483339647011        1.13109451155265
H            4.18923101573905        0.87911685036087       -0.58865690763384
H            2.94014785322969        2.05368582240521       -0.09089983376014
H            3.59667436956104       -1.72450758880917       -0.01117428519747
H           -1.84769589479085        3.08556542088359       -0.22614691363226
H           -3.58458693525156        2.01307809169499       -0.67578572278516
H           -2.93652548378160        2.07078061908239        0.73310312777625
H           -1.12934085218797       -3.13173235218848        0.84037516502069
H           -1.10560835680797       -3.11084372032752       -0.94866257254309
H           -2.51946707515210       -2.48482929455314       -0.06506693982179
H            1.34430674407922       -2.93196400521170       -0.05329651866610
25
 energy: 28.674257635969 xtb: 6.6.1 (8d0f1dd)
C            3.39148901456068        1.09040579930870        0.13015620660894
N            2.37346200646067        0.09037408508485        0.04463347511552
C            2.63437137009699       -1.26966532648655        0.04275755331821
N            1.43275547586689       -1.92975735903281       -0.01851339458259
C            0.43890617191219       -1.02172754288682       -0.01582827208005
C            0.96928053954553        0.26303905524525        0.02617562065821
C            0.15158706520781        1.42995251979750        0.00594382432953
O            0.54648995406538        2.59218271624415        0.09463611147922
N           -1.29914682184648        1.10806013907512       -0.14652824788766
C           -2.39601715738953        2.13772274324649       -0.16517257691798
C           -1.79169075553557       -0.15229182176624       -0.07248945103370
O           -2.98791155170233       -0.37002500305972       -0.05903713914222
N           -0.90151659885116       -1.24175680335953       -0.03315893062619
C           -1.43479898011661       -2.58081805291146       -0.05190110956335
H            3.83757386747889        1.12420434105853        1.13111611225385
H            4.18907740014542        0.87950408424363       -0.58902943843712
H            2.94001956772018        2.05371508584401       -0.09005684302344
H            3.59678430494740       -1.72469159455614       -0.01368179420796
H           -1.84871078223326        3.08574170498961       -0.22636993447628
H           -3.58403618760625        2.01261936031660       -0.67393835072884
H           -2.93571424268593        2.07108919847670        0.73391076221443
H           -1.12929957840443       -3.13151468703936        0.84029108843875
H           -1.10560646189050       -3.11079094215209       -0.94874294649874
H           -2.51939363717375       -2.48458487965023       -0.06518029286779
H            1.34426068536408       -2.93195821785805       -0.05295813619542
25
 energy: 28.610019194144 xtb: 6.6.1 (8d0f1dd)
C            3.39148535269907        1.09015808120311        0.13047020628429
N            2.37305133661173        0.09042715654909        0.04567339625939
C            2.63449747237773       -1.27013362515081        0.04698667826078
N            1.43252245976260       -1.92971149509463       -0.01820839758890
C            0.43899823565643       -1.02165895631066       -0.01606172667704
C            0.96932501107074        0.26291820479970        0.02627291512868
C            0.15058256427631        1.42968700878867        0.00542779069215
O            0.54652777649084        2.59191804253555        0.09268637199633
N           -1.29902135347802        1.10858170152198       -0.14608400780200
C           -2.39683562759754        2.13778810977293       -0.16550364144119
C           -1.79138049734909       -0.15228068259103       -0.07328718089144
O           -2.98769698258335       -0.36991902493328       -0.06048632921730
N           -0.90142592963677       -1.24167263954916       -0.03360398410879
C           -1.43472229408949       -2.58067192971196       -0.05199634122077
H            3.83825853289268        1.12359139898020        1.13107502494145
H            4.18861725227262        0.87931370130675       -0.58941853959471
H            2.94016399611944        2.05362625393281       -0.08945238585039
H            3.59687307837312       -1.72409289899805       -0.01701188224012
H           -1.84950481872565        3.08596801398079       -0.22665336757991
H           -3.58411091847355        2.01241215679869       -0.67216181039591
H           -2.93474346370398        2.07136462548625        0.73461183608755
H           -1.12904841491817       -3.13118073829076        0.84025756226442
H           -1.10567092611905       -3.11084403028228       -0.94876855742178
H           -2.51934141536761       -2.48455846703593       -0.06512390601506
H            1.34481424137523       -2.93200136553580       -0.05260582772238
25
 energy: 28.558366920962 xtb: 6.6.1 (8d0f1dd)
C            3.39136337555032        1.09010248803792        0.13046900825191
N            2.37276184839529        0.09050387388015        0.04611857895693
C            2.63425146524163       -1.26987622866439        0.04945071124533
N            1.43249064062511       -1.92970027274091       -0.01832032447785
C            0.43884740131590       -1.02163783411963       -0.01654813693902
C            0.96935375686260        0.26278380695807        0.02612508655446
C            0.14990545276877        1.42967271884171        0.00559187221069
O            0.54666752056591        2.59158717975240        0.09336109639606
N           -1.29868689155602        1.10847090563595       -0.14587787709919
C           -2.39674790776570        2.13784057127342       -0.16556061367546
C           -1.79146271127331       -0.15252112138518       -0.07342121902613
O           -2.98776637254386       -0.36972942672005       -0.06065775417956
N           -0.90150763064627       -1.24165187582558       -0.03390239707388
C           -1.43473744343479       -2.58079328374181       -0.05203639736265
H            3.83804923168074        1.12378633403477        1.13108212966351
H            4.18841881840068        0.87873727935201       -0.58926375214668
H            2.94041688304175        2.05356673539772       -0.08978447198109
H            3.59669719839301       -1.72328011803845       -0.01932679859339
H           -1.84938800297546        3.08585643117779       -0.22724600045966
H           -3.58374395497559        2.01227861444209       -0.67197705607223
H           -2.93431695586566        2.07192707793854        0.73468385894048
H           -1.12883171259953       -3.13109258146798        0.84024234340145
H           -1.10571494505965       -3.11097562878715       -0.94877977790720
H           -2.51935043237306       -2.48477563922872       -0.06502377691123
H            1.34524603616350       -2.93205140383059       -0.05236443556826
