25
 energy: -42.430269516242 xtb: 6.6.1 (8d0f1dd)
C            3.39235103087106        1.09290529379517        0.12534806059401
N            2.40147826045912        0.06239171486057        0.04595481905178
C            2.64745294992766       -1.27403773312769        0.04628826570303
N            1.46463872285472       -1.94134142164802       -0.01612012714298
C            0.45743523945324       -1.03615911846665       -0.02442014331521
C            1.01676629231847        0.24057948931030        0.01498886693321
C            0.24765925842803        1.42491389340975        0.01075310248010
O            0.64644671660520        2.57813417510945        0.14407860941837
N           -1.17206977282897        1.13062992508158       -0.15116612669243
C           -2.06489551171232        2.17796967579520       -0.16632411954805
C           -1.73896513937878       -0.13468388181140       -0.06467405443062
O           -2.93475438366767       -0.32455049434705       -0.02160955650506
N           -0.87506585341213       -1.24189813948704       -0.03636141293612
C           -1.43620722513829       -2.57917926563488       -0.05284502484827
H            3.83511648071976        1.13753117873775        1.12422174238778
H            4.18842383888958        0.89168395356162       -0.59530094426736
H            2.92549898480339        2.05005587357915       -0.08977198365492
H            3.60990124953907       -1.73120684672872        0.01582571255732
H           -1.66339359233078        3.16380675967671       -0.21943332622931
H           -4.15659840161100        2.07166434865768       -0.62778386298706
H           -3.06245772204194        1.99418761181401        0.19126373636643
H           -1.13634907504368       -3.13322113907244        0.83920997427134
H           -1.11082836086057       -3.11305038588678       -0.94834835327556
H           -2.52182257067104       -2.48145195781082       -0.06754083054381
H            1.37191609573996       -2.94295685755465       -0.04618529835043
