25
 energy: 59.623394869660 xtb: 6.6.1 (8d0f1dd)
C            3.29699283227480        1.67941936926702        0.14168272821668
N            2.64150040722426        0.33058896698508        0.00482216354740
C            3.05731288771824       -0.95071523340009        0.06723674135715
N            2.00456176090014       -1.81831407033012        0.05292373068172
C            0.82260411562077       -1.10395347934150       -0.03086734857859
C            1.27351078909979        0.23083968992705       -0.07396343552366
C            0.33622708544661        1.29656086402874       -0.12177341438719
O            0.62269351672127        2.48809003276568       -0.16122519201452
N           -0.94719263606369        0.82319644236253       -0.10062741221134
C           -1.96247057483508        1.87632301105676       -0.04919363587306
C           -1.37337618924503       -0.53429197018208       -0.08327912765896
O           -2.58304655379751       -0.58023088842519       -0.08386409920578
N           -0.42052429272946       -1.56725285718406       -0.05364281180013
C           -3.26971499657065       -3.17907829825527       -0.08543131839159
H            4.17962119160128        1.61865295198226        0.77410763848011
H            3.57487357312606        2.21260522622796       -0.78731702413538
H            2.60880094749542        2.40130619530229        0.61017219668703
H            4.06756913019431       -1.32257097396081        0.13346676116562
H           -1.34451211041323        2.77340058948835       -0.03460970636114
H           -2.60042532287191        1.85360717155832       -0.92732352186987
H           -2.58881965845540        1.78940462808249        0.84158383607081
H           -3.25590758212270       -3.66265369565900        0.84156159903407
H           -3.17727756675792       -3.71218111706900       -0.97905613494239
H           -3.55903281691272       -2.16403726247929       -0.12172565708359
H            2.01960459901273       -2.83534521403897        0.11906362035834
