25
 energy: 22.820250305730 xtb: 6.6.1 (8d0f1dd)
C            3.25686736712524        1.35881277885263        0.11967009707861
N            2.42564613228893        0.14560974378467        0.01740640331366
C            2.77304232538601       -1.21760518515623        0.03690940755008
N            1.60995223215705       -1.95960996586381        0.02554842736541
C            0.49550900676511       -1.18820538975005       -0.02104591564804
C            1.00673993708045        0.14654161621035       -0.02617265879565
C            0.18189122475697        1.28820222828894       -0.05680482417798
O            0.49447990432086        2.48654029562104       -0.08228952794318
N           -1.19226745211037        0.91407547889752       -0.05680456557774
C           -2.14975593509712        2.01467028751771       -0.05073006584531
C           -1.72082940143394       -0.32849742880465       -0.07214989828470
O           -2.94225364296000       -0.39399331050439       -0.08886478434137
N           -0.91373752065595       -1.51944517473430       -0.05648554199217
C           -1.92309056740763       -2.68551686214031       -0.06510550083433
H            3.88311789440545        1.37642204377331        1.02463452213027
H            3.93773696462380        1.52015497361749       -0.73908570280305
H            2.58815350552562        2.23541912765131        0.18160710592280
H            3.75560378086746       -1.66072871909306        0.08367378352051
H           -1.54487398914660        2.92237106499250       -0.02735078466363
H           -2.76554774093580        1.97611644701119       -0.94805641123292
H           -2.79132401843554        1.95135362139993        0.82786341375365
H           -1.92265391357501       -3.30344931521349        0.83128993269200
H           -1.88483237749368       -3.30780786030030       -0.95716285194639
H           -2.86104791576233       -2.15270517583832       -0.08310556420005
H            1.58062239147304       -2.96409494294513        0.05775177988701
