25
 energy: 56.516815091348 xtb: 6.6.1 (8d0f1dd)
C            3.38351611726454        1.74600262123821        0.11499633724714
N            2.71251035897624        0.39216647807563        0.00267444216705
C            3.13816930483444       -0.88510906813146        0.07230637199439
N            2.09632528101224       -1.76055067886841        0.05644048538977
C            0.90822521930569       -1.05102764572552       -0.02121596624772
C            1.34161060234997        0.28838310069523       -0.06181628593138
C            0.37301699459514        1.33207749230215       -0.09564362606337
O            0.62521995605547        2.53155157793442       -0.11436271925468
N           -0.89580456761324        0.81468725934435       -0.08805556669902
C           -1.93519368158716        1.84205966050019       -0.05201210930302
C           -1.29695930481393       -0.55522394913873       -0.07804365684051
O           -2.50120661440751       -0.65464072099942       -0.08754674700604
N           -0.31159061446451       -1.55013533630766       -0.04532286683710
C           -3.49683230078165       -3.30331689613395       -0.08994134353267
H            4.25000411432809        1.69175624839696        0.76858495284685
H            3.75189849192465        2.25317253599876       -0.80154624164681
H            2.68577478920515        2.49582084567905        0.51677121110833
H            4.15552645491974       -1.25222601129007        0.12247818804020
H           -1.35724687395503        2.75236407761521       -0.04967371423721
H           -2.57360109099017        1.80058681196788       -0.92937850436051
H           -2.54531857026858        1.77583980084671        0.84774911230643
H           -3.57693927769917       -3.78508381537656        0.83463804151404
H           -3.49374678987811       -3.83264484842550       -0.98980976165808
H           -3.67463448666573       -2.26530413312644       -0.12256163113272
H            2.11272169070372       -2.77623422053520        0.12803055406940
