25
 energy: 37.768191009813 xtb: 6.6.1 (8d0f1dd)
C            3.62030274701096        1.78473229341017        0.08630179312172
N            2.84174309717970        0.56788455483176        0.06249079444295
C            3.31350390565506       -0.67125900814292        0.07439126751972
N            2.29429118586772       -1.55291175674507        0.04078322501981
C            1.10874489036748       -0.84732451315371        0.00900981583439
C            1.47514841940071        0.50403849712149        0.02342418322815
C            0.44942852439452        1.51747362046845        0.00388978647364
O            0.65607791566530        2.72418405035850        0.01731232682027
N           -0.80417213511134        0.95232094212213       -0.03040025044394
C           -1.94846007330602        1.84478608788239       -0.04849583165478
C           -1.11752535363812       -0.44900136763361       -0.04925681808451
O           -2.28116360923353       -0.76924452127357       -0.08230974722685
N           -0.09543776490564       -1.34146946284251       -0.02643555597294
C           -4.30024044016953       -3.84829492251860       -0.13474132443903
H            4.21664734105943        1.83585054502670        0.99787351586540
H            4.28975293807878        1.82208228282103       -0.77456016852075
H            2.93746369388472        2.63379349820814        0.04965403089310
H            4.35343538171725       -0.92814014219051        0.10416382667438
H           -1.57158448206074        2.86465023281335       -0.01447338335898
H           -2.53528735000534        1.68261972107024       -0.95382391674686
H           -2.59019555004459        1.64038723575108        0.80861072554615
H           -4.54536719332119       -4.32908441187005        0.79406630875867
H           -4.48957798044837       -4.31085571215657       -1.08325971733982
H           -3.73322238618313       -2.93823754107268       -0.11856035302490
H            2.36385032990797       -2.55841575264875        0.04103852849860
