  25
        -42.08062056
 C          3.2320025178        1.1305153187        0.0173477401
 N          2.2791188160        0.0522327759       -0.0105256055
 C          2.5440552755       -1.2458391456       -0.0258334793
 N          1.3939753498       -1.9508486757       -0.0291127655
 C          0.3558326297       -1.0676252810       -0.0152383121
 C          0.9101830148        0.2072062991       -0.0047896542
 C          0.1087381859        1.3962721362       -0.0061289348
 O          0.4945620614        2.5443877983       -0.0075938518
 N         -1.2880537390        1.0814834032       -0.0149317594
 C         -2.1528382412        2.1114378502       -0.0406491379
 C         -1.8563868912       -0.2223642909       -0.0003575277
 O         -3.0443639933       -0.3860771818        0.0129161885
 N         -0.9707227299       -1.3000220815       -0.0054880465
 C         -1.5091878696       -2.6486341218       -0.0014448483
 H          3.7705078929        1.1338184006        0.9655376166
 H          3.9501075105        1.0234630949       -0.7946367387
 H          2.6953152318        2.0728712390       -0.0886455390
 H          3.5249839816       -1.6789888128       -0.0334516625
 H         -1.7421352082        3.1030746266       -0.0582915545
 H         -3.2041300037        1.8994081699       -0.0542459336
 H         -3.9720008419        3.5448451052        1.7744381448
 H         -1.1606912301       -3.1933111811        0.8756595666
 H         -1.2250636611       -3.1751811024       -0.9126724991
 H         -2.5948046937       -2.5700101464        0.0378650135
 H          1.3261230113       -2.9589600134       -0.0427873287
