  25
        -42.11775277
 C          3.3148475916        1.0360960923        0.0517678234
 N          2.3878595556       -0.0621242043       -0.0153888956
 C          2.6752772494       -1.3494037101       -0.1261750316
 N          1.5360439542       -2.0760445515       -0.1251726993
 C          0.4821174339       -1.2103455415       -0.0088767449
 C          1.0289531162        0.0650807817        0.0633396440
 C          0.1499365635        1.2511714751        0.1347787407
 O          0.5869781812        2.3854322987        0.1381231215
 N         -1.1451356933        0.9116841167        0.1691999583
 C         -3.7264615474        3.7770339141       -0.5348862503
 C         -1.7144371779       -0.2827486375        0.1343132185
 O         -2.8965735271       -0.4958528012        0.1685929431
 N         -0.8272221068       -1.4530714557        0.0286797695
 C         -1.4023925046       -2.7740206712       -0.0290077937
 H          3.8274988786        1.0399484120        1.0150714761
 H          4.0566035478        0.9594211135       -0.7421429490
 H          2.7528507777        1.9661390711       -0.0493046581
 H          3.6620888117       -1.7626125361       -0.2044369215
 H         -2.8847620844        4.4428496052       -0.5158591650
 H         -4.0768403655        3.3737733435       -1.4650827911
 H         -4.2047162271        3.4934863020        0.3820676308
 H         -1.0984505042       -3.3682641753        0.8355075239
 H         -1.1175959601       -3.2829992734       -0.9516402428
 H         -2.4863401126       -2.6499799070       -0.0082403072
 H          1.4850034900       -3.0810120024       -0.2105132222
