25
 energy: -42.126140363022 gnorm: 0.001696811184 xtb: 6.6.1 (8d0f1dd)
C            3.17995416383095        1.09745688819269        0.00258083492482
N            2.37940223451496       -0.09467561189501       -0.04081819523834
C            2.79486485257483       -1.33964120489613       -0.25728752284088
N            1.75251744908560       -2.20913414138973       -0.18418082608257
C            0.64299259452952       -1.48267850656401        0.08923810131177
C            1.02723802869758       -0.14365930707656        0.18334983157796
C           -0.14072085312474        0.66177358042722        0.43878142496504
O           -0.28404749645483        1.86542344173732        0.55654592472159
N           -2.64071287288495        2.75345587874922       -1.35320567094821
C           -2.71123663386304        2.82975354932054       -0.11784933961089
C           -1.25432012869857       -0.39215786797485        0.51711824339079
O           -2.42392552425627       -0.21742247867126        0.73282470398671
N           -0.67942039647505       -1.66263378897111        0.28749385900121
C           -1.43907506107155       -2.88761474102715        0.23353468626634
H            3.58676636656489        1.24327394820894        1.00559404270696
H            4.00312292841111        1.02939611082238       -0.70627277110241
H            2.55076060763505        1.95276093511278       -0.23924195399328
H            3.80711067766754       -1.62815776513886       -0.45921553159795
H           -2.48914720503119        3.71881239250531        0.47942298784996
H           -2.36520462042705        3.54657870266087       -1.92348693202736
H           -3.02226866386049        1.95048388206820        0.43880361307229
H           -1.07665722321253       -3.60069441495008        0.97453018214255
H           -1.38735037614442       -3.33083068034076       -0.76207654431317
H           -2.47454944456354       -2.63419678678663        0.45710771573621
H            1.82433811060242       -3.20743347250982       -0.32211924602677
