72
 energy: 54.869037541372 xtb: 6.6.1 (8d0f1dd)
N           -1.05613610771367        2.87023702871959        1.85853063664107
C           -1.64143725484940        1.73206097678503        1.69024156981582
C           -2.88707325937869        1.58042759965440        1.04933088533333
C           -3.44708609172562        0.25806140381074        0.89797805839359
C           -4.32657264086676       -0.06346406516992       -0.15799819451860
C           -4.86547702332262       -1.32351684953440       -0.29839570489335
O           -5.72684274792838       -1.70961981235296       -1.28847945840574
C           -6.20809663263931       -0.73928189855814       -2.18038019675510
C           -4.53679699738999       -2.33971673544869        0.62652188040826
O           -5.11957628767160       -3.55717719444959        0.39917304613926
C           -4.85974817666347       -4.59971535674089        1.29865977919897
C           -3.68226056741865       -2.03439978138892        1.67154378577592
C           -3.14355379729838       -0.76793006612125        1.79992570830425
C           -1.43479416685680        3.14516503504009       -2.38265818021284
C           -1.14440188623532        1.80150260992725       -1.87329101082250
C            0.16476477559100        1.59787957967642       -1.25764253221667
N            0.56541955595107        0.44779166809113       -0.70878453278886
C            1.91257665183043        0.29944836439731       -0.21979468544406
C            2.83929889439049       -0.34772172502640       -1.27212753361075
C            4.27012732710146       -0.30980779137002       -0.81764974736303
C            5.03553478092825        0.82272429162934       -1.01956268929714
C            6.35194190372912        0.87954214092712       -0.58404598046255
C            6.92319706097570       -0.20120040211570        0.06364246045124
O            8.20057923682980       -0.26017843384985        0.52780343414260
C            9.03479923455630        0.85586517235056        0.34624753487299
C            6.14862873424430       -1.36529226059635        0.27618919207912
O            6.79790342153231       -2.37906742596925        0.91123124236716
C            6.11849086511214       -3.58796637543116        1.13170325765929
C            4.83687791658087       -1.40058424338462       -0.16035850494665
C           -0.24649215255153       -0.73765577078922       -0.81155301278997
C           -3.76961913112457        2.77639699533723        0.77440273698399
C           -4.39965476632301        3.19813897618359        2.11112749997677
C           -3.06271468722661        3.97824316973490        0.15074116825748
H           -4.56106011591541        0.69528019825448       -0.88662445997950
H           -6.70851255573600        0.08387407752432       -1.65866992193383
H           -6.93212930007340       -1.25484860926405       -2.81020436757929
H           -5.41023158353345       -0.33261468878434       -2.81258750714489
H           -5.21152668504380       -4.36251421466995        2.30896623387735
H           -5.41364058573731       -5.45574729171101        0.91584487017853
H           -3.79364245663994       -4.85238748248813        1.33986499715519
H           -3.43866826342241       -2.77860506005972        2.41471478942363
H           -2.52673646720689       -0.56069222066789        2.66092747335933
H           -2.19887396430495        3.27229685639589       -3.12043041573434
H           -0.73619041732542        3.93874485922281       -2.22685720096497
H           -1.90569907237425        1.51931472639739       -1.09101362021774
H           -1.31191151667990        1.03675034505435       -2.64165289761631
H           -1.11343974047937        0.79604052574206        1.93213566900308
H            0.82921410556742        2.44410632149274       -1.15325278759948
H            1.90864863997642       -0.31311259025646        0.68671227084913
H            2.30290009668980        1.28602449019515        0.03754772762998
H            2.73518494978337        0.20984741996507       -2.20563309183365
H            2.52519028270304       -1.37697804114739       -1.44849375496190
H            4.61316219527921        1.67478920562535       -1.53046181627815
H            6.92350706439644        1.77643889408295       -0.76130712559996
H            8.64206287791280        1.74293150117961        0.85462148003193
H            9.18414467912601        1.08257252981413       -0.71455045111081
H            9.99015912905495        0.58156096004992        0.79096722735860
H            6.83660501550770       -4.23816394144271        1.62937816550719
H            5.24656592233566       -3.45191338149841        1.78067299339783
H            5.80278534708608       -4.05314300692669        0.19152466589944
H            4.23808832068590       -2.28466319661574       -0.00569485879908
H           -0.37200001278630       -1.04623973257848       -1.85557374094038
H           -1.23959892096165       -0.55838965627761       -0.38987912703474
H            0.22203968632314       -1.55023697074467       -0.26205637224193
H           -4.58721006701531        2.47218163093803        0.11022695001752
H           -3.61359166640789        3.51983561133795        2.78802178993481
H           -4.92978768891416        2.35669564649425        2.55562709903024
H           -5.09724822450302        4.01902956207583        1.96223484795064
H           -2.26637548275053        4.30583358436664        0.80972398758288
H           -2.62010040984309        3.71626191405778       -0.81784642117028
H           -3.77170522527088        4.78410609777114       -0.00834029833558
H           -0.15377201618873        2.81471962168561        2.32300473608044
