72
 energy: 35.901467303471 xtb: 6.6.1 (8d0f1dd)
N           -1.32782152010823        2.95047355158114        2.08509840001378
C           -1.52578559661219        2.00708645214913        1.25753985733397
C           -2.70377545247364        1.93277325315861        0.36543229805936
C           -3.28544140984219        0.51971204459915        0.43843342560482
C           -4.28880165431573        0.13605897423050       -0.45979473547974
C           -4.85797830182784       -1.12191426425042       -0.45158706386884
O           -5.80245199601614       -1.56574606042443       -1.33228033852005
C           -6.33338154781722       -0.65316944828867       -2.25793818927384
C           -4.44977641989257       -2.06822731501886        0.51141544846972
O           -5.03150752556654       -3.29616965596319        0.40776207362108
C           -4.72928902921966       -4.27501543441443        1.36823080516440
C           -3.52663626019763       -1.67345017157544        1.46148372247127
C           -2.96974050775690       -0.39668770072088        1.43826258432352
C           -1.97725780021273        2.58714538254111       -1.37248893509531
C           -1.20660050415784        1.36250961845593       -1.75743610302353
C            0.07259479413828        1.32279886516824       -1.03377671659235
N            0.62410745356957        0.13392426526886       -0.60995422557902
C            1.98548115723282        0.08922771320384       -0.18291530127569
C            2.91445701389518       -0.46802074952633       -1.28429446383075
C            4.33949871786864       -0.38860246496186       -0.84538533975825
C            5.07246080009087        0.76670367515363       -1.03914018832300
C            6.38192821552314        0.85794232701669       -0.59132388437639
C            6.97569569183668       -0.20719879046361        0.06294997661249
O            8.25635447468791       -0.23442332467020        0.53289294291987
C            9.05971857476126        0.90043955081617        0.33151572158661
C            6.23054964582664       -1.38728893350651        0.27962786401037
O            6.89723693031506       -2.38343247225143        0.93068632606428
C            6.24480483446096       -3.60614528605493        1.14572481446281
C            4.92612147549643       -1.45908467944160       -0.17098787383753
C           -0.11088740176770       -1.10413180864796       -0.69401283155538
C           -3.82203349590080        2.97041606769487        0.61063016175818
C           -4.44680494170205        2.90732307270735        2.00737062347522
C           -3.28603242990856        4.38205580921425        0.39207340322324
H           -4.61274253150286        0.85081471103663       -1.19547361682067
H           -6.80055107345760        0.20168410313965       -1.75691226425344
H           -7.08973535821207       -1.20852474405422       -2.80971323765238
H           -5.57301955447400       -0.29006250940747       -2.95855449253488
H           -4.99806744478786       -3.94989837995656        2.37872988250794
H           -5.33345256856650       -5.14140078348540        1.10308935367402
H           -3.67129582607481       -4.55903809778795        1.34630047749835
H           -3.21574736423756       -2.37531456384545        2.22322756046705
H           -2.27459661645405       -0.14838292692655        2.22465157111746
H           -2.75414708275001        2.78864827919134       -2.11764787297239
H           -1.29625976205189        3.45478755948172       -1.34707694374285
H           -1.83507544507050        0.56587041103145       -1.41254137520323
H           -1.14444517406416        1.28853596091765       -2.85604238309313
H           -0.78361797104002        1.23874157085898        1.05897786326274
H            0.73583716092940        2.15522234695396       -1.05417694659092
H            2.08040828571433       -0.52591001717035        0.71994857970286
H            2.30166193715363        1.10061766133837        0.07435527653524
H            2.75489075919947        0.12481248595749       -2.18438481346872
H            2.63103304063910       -1.50160461254572       -1.49649589446428
H            4.62351786355018        1.60504301790832       -1.55014770335697
H            6.93088503105418        1.76771719976792       -0.77164804816056
H            8.64664750882394        1.78356364478231        0.83121255737394
H            9.19355626485507        1.11836592174798       -0.73380637749292
H           10.02349424791468        0.65302476004755        0.77380425493193
H            6.97462728299377       -4.24232304767278        1.64582339825246
H            5.36841735774698       -3.48818064890191        1.79099861649273
H            5.94317328880310       -4.07667586372537        0.20375130164923
H            4.34784717308238       -2.35659168658807       -0.01051834520852
H           -0.27473486363428       -1.41657403189622       -1.73293607323376
H           -1.08776948376419       -1.00749907635499       -0.21196628041645
H            0.43151056707232       -1.89073190949634       -0.17291689112274
H           -4.63491014858561        2.78309986735675       -0.10635207080985
H           -3.68981520570322        3.11639883932937        2.75446728767565
H           -4.89000135443307        1.93314661509929        2.20688967340138
H           -5.23602374456472        3.65588966802009        2.08255389508062
H           -2.49503577849613        4.56480802975569        1.11280901809350
H           -2.89254985590927        4.48395081540290       -0.61087707289184
H           -4.07451809419458        5.11296117697481        0.51622007597868
H           -0.44380169961385        2.78812663300215        2.55864075129022
