72
 energy: -5.411318884113 xtb: 6.6.1 (8d0f1dd)
N           -1.47508006265174        2.80504319529549        2.22813244785281
C           -1.54899658219127        2.13223010130047        1.16614519815655
C           -2.73216631685808        2.04615054399638        0.24616834886577
C           -3.31216223222363        0.63447843740031        0.34097777440213
C           -4.30243579569038        0.23259282571537       -0.55893401572118
C           -4.85006176085889       -1.03529710653380       -0.51904216355222
O           -5.81631975346722       -1.49994694334350       -1.36021216300413
C           -6.38701846414008       -0.61562042863402       -2.29009276813025
C           -4.40524209652206       -1.95962677111769        0.45243872965529
O           -4.99747336967816       -3.18527340306730        0.40981824527268
C           -4.67337692918297       -4.12436694673876        1.40267603444013
C           -3.43669572929123       -1.56047690944687        1.35285035236032
C           -2.89997344956028       -0.27711147024825        1.29889703839108
C           -2.16930966289367        2.33996315197087       -1.19527507236373
C           -1.25553997449229        1.20649855592399       -1.67796172066331
C            0.01193316971168        1.15503626143613       -0.90903726484428
N            0.63533778096275       -0.02171605923958       -0.56651736027777
C            2.00188765416839       -0.01444573174402       -0.16242135848178
C            2.93338760274004       -0.52996011319813       -1.28037578621826
C            4.35770549011597       -0.42772825625312       -0.84094317957174
C            5.07589049345280        0.73598682077044       -1.04243989753102
C            6.38611032870803        0.84449220028672       -0.60112904100218
C            6.99428629009962       -0.20870593826427        0.05825935331856
O            8.27350321515044       -0.21473725342266        0.52869452039492
C            9.06799291635859        0.92410225535918        0.32139329164430
C            6.26458427130534       -1.39876247227646        0.28003170282000
O            6.94469352991919       -2.38341963152888        0.93140594098974
C            6.30565929036707       -3.61354288085089        1.15172761707579
C            4.96006400728680       -1.48867331497987       -0.16475608189205
C           -0.05940708202087       -1.27436817881664       -0.63082183603724
C           -3.86216193981003        3.06138672811438        0.58463931370624
C           -4.48825965301088        2.79291142369624        1.95197629316904
C           -3.37772529692473        4.50779962384688        0.52719912785908
H           -4.65184557474632        0.93229040957328       -1.29979392875187
H           -6.84247449901675        0.25051817578949       -1.79819193587893
H           -7.16179366917814       -1.18919640299018       -2.79643882573199
H           -5.65468486758468       -0.27178325572398       -3.02885878252172
H           -4.89949168970087       -3.74773664272294        2.40572183809791
H           -5.29864608838965       -4.99165161101253        1.19651620158245
H           -3.61988028033909       -4.42097006839176        1.35434132296272
H           -3.08923954962794       -2.24172357948515        2.11485450931126
H           -2.16268089808451       -0.00176100665641        2.03748268695408
H           -2.98596642402675        2.43679427923289       -1.91679484545501
H           -1.60380864858354        3.27444442783883       -1.22401224186374
H           -1.81129090147072        0.27801572729391       -1.59964253975846
H           -1.02544573076711        1.37739304453740       -2.73839832232277
H           -0.69509690862815        1.59509858734235        0.69508790912415
H            0.65728059060275        2.01213155670999       -0.95656734861606
H            2.11501996481382       -0.64324542458499        0.72773280289844
H            2.29995273808572        1.00249564699426        0.10276569775494
H            2.76422724696399        0.07636754519309       -2.17154134572380
H            2.67278494156608       -1.56413810911577       -1.51044362363052
H            4.62178754309770        1.56800815752629       -1.55992133374809
H            6.92527924057040        1.75935521360017       -0.78715448314400
H            8.65059431278034        1.80640703723047        0.81879093999319
H            9.20003264460960        1.13732070511504       -0.74494993882359
H           10.03421713781050        0.68559693995841        0.76316299098245
H            7.04369410306384       -4.23786048476796        1.65328537877170
H            5.42777775725195       -3.50491938642062        1.79781095601514
H            6.00916558747535       -4.09114043563990        0.21151711119597
H            4.39344998369492       -2.39367014314259       -0.00633123391466
H           -0.22943777088426       -1.59298027358189       -1.66545563052098
H           -1.02710305900536       -1.20752544783170       -0.12450133306645
H            0.53969669497334       -2.02989884916667       -0.12873177967120
H           -4.64448973188219        2.93212098933358       -0.17293491333118
H           -3.74768000352379        2.93201240525047        2.73253935563666
H           -4.87701317822422        1.77969700761032        2.01034827095270
H           -5.31077218907748        3.48526986598526        2.12027420670386
H           -2.58512553531265        4.66891150113790        1.25188300648993
H           -3.01713692629079        4.77011222724828       -0.46325581119217
H           -4.20314622620362        5.17172134013477        0.76671108764574
H           -0.57323561932679        2.77726678676744        2.70506134691421
