72
 energy: 55.708901498590 xtb: 6.6.1 (8d0f1dd)
N           -1.04252801304605        2.87625561813538        1.82836476376302
C           -1.62856122922236        1.74501764979780        1.63857162514639
C           -2.86132386226376        1.60025929164101        0.97489945481383
C           -3.41813039566850        0.27411489122319        0.83896879408994
C           -4.30997849538062       -0.06294305584718       -0.20085626542956
C           -4.86184738714962       -1.31779891091813       -0.31629351683635
O           -5.74000685265093       -1.70691371785168       -1.29064669120747
C           -6.21365508209950       -0.73655786344680       -2.18706471701724
C           -4.52793182973920       -2.32167626577004        0.61987492137407
O           -5.10999572450026       -3.54208388537744        0.40418317587925
C           -4.85769525308050       -4.59418031403483        1.29705095298040
C           -3.67350536085096       -1.99554036601774        1.65708723875675
C           -3.12325336747592       -0.73241197235357        1.75864040738871
C           -1.49437952739390        3.13567479586759       -2.25196016460924
C           -1.15379811552848        1.76135303492571       -1.86276251376037
C            0.18365539149217        1.56155964551986       -1.31226502979985
N            0.57090682486221        0.44029085099462       -0.69150805182493
C            1.92321529812517        0.29968860792161       -0.21515838897102
C            2.84258448809875       -0.34701575538108       -1.27255487154361
C            4.27401868813851       -0.30822021461664       -0.81894151278964
C            5.03905364683530        0.82422197487303       -1.01983990472374
C            6.35532899391960        0.87910548217360       -0.58335839739750
C            6.92730723509013       -0.20147211431053        0.06351882330293
O            8.20287627921588       -0.26145717429272        0.52931694624324
C            9.03676147193364        0.85513965535821        0.34745011090644
C            6.15370598401429       -1.36669949575379        0.27293752524648
O            6.79590443021163       -2.38166653598921        0.91261739676414
C            6.11219462445218       -3.58995646423067        1.12958385708383
C            4.84270906139061       -1.40032513024416       -0.16566052628402
C           -0.23107920979371       -0.75171769616387       -0.79967070327444
C           -3.76693740894731        2.79488867011155        0.75289761109020
C           -4.37774816011617        3.18636714706728        2.10786699789140
C           -3.08505164991172        4.02577455988130        0.15913390403995
H           -4.55531442751739        0.68900315923052       -0.93193316643678
H           -6.71168649369941        0.08957640235452       -1.66740411122873
H           -6.93474829200428       -1.25332533211876       -2.81815335043494
H           -5.40805130906493       -0.33653904941456       -2.81244569925541
H           -5.21557132027746       -4.37162300072767        2.30802203486245
H           -5.41331272235381       -5.44514478846099        0.90151017912671
H           -3.79414413213693       -4.85519997805651        1.34075315721035
H           -3.44542417897949       -2.72321165897454        2.42321971471697
H           -2.51662821160956       -0.51316781977429        2.62220466755393
H           -2.25354592864196        3.28808879972141       -2.98424924836775
H           -0.76822272740792        3.90637890847327       -2.09087537429768
H           -1.90550559432605        1.44787341752439       -1.08820512547387
H           -1.30654654716204        1.04447385126883       -2.68455025879616
H           -1.13032186645622        0.80431399398318        1.90969543403029
H            0.82075865357807        2.41924764252872       -1.18820537602699
H            1.92553337328420       -0.31438050960770        0.69104419842555
H            2.31359860547596        1.28839831803048        0.03856908968345
H            2.73569969519651        0.21422760836598       -2.20430258098911
H            2.53409201509862       -1.37861497765116       -1.45640925163275
H            4.61918219989175        1.67849730590999       -1.53008079432025
H            6.92510137825449        1.77594374799578       -0.76418332580956
H            8.64266430423785        1.74118884399906        0.85600465531118
H            9.18491064566022        1.07995928072672       -0.71397219133522
H            9.99166861913738        0.58074750500963        0.79304174039629
H            6.82784606714435       -4.24240085039795        1.62745079478237
H            5.24076047907554       -3.45214689680074        1.77806592831626
H            5.79836963729269       -4.05099066477390        0.18702927392306
H            4.24502918357999       -2.28589628872418       -0.01254159799274
H           -0.35513397674229       -1.04345567671392       -1.84778681998621
H           -1.22469766405781       -0.57790918161124       -0.37964991689531
H            0.23747417190526       -1.56872940614092       -0.25504081784791
H           -4.59042996474729        2.49833839127565        0.09207143273610
H           -3.59056269643835        3.51329718422800        2.78212757188270
H           -4.90286572510466        2.34259074672579        2.55181469979454
H           -5.07548456656666        4.00857888788534        1.96752455822947
H           -2.28533013477232        4.35294795737285        0.81447726185977
H           -2.63645710634984        3.76199308937720       -0.81227775621149
H           -3.79211398406323        4.83421731300617        0.00511374828592
H           -0.18561092492986        2.80542381220333        2.36580146686216
