72
 energy: 58.170883462109 xtb: 6.6.1 (8d0f1dd)
N           -1.03436755455766        2.89963823489705        1.82720441872443
C           -1.61082348005311        1.77581982399657        1.56535661907814
C           -2.84026487111109        1.63414579709234        0.89809675141226
C           -3.39577744744057        0.30725352295845        0.77846447158919
C           -4.29824938522399       -0.04131045865900       -0.24737310654004
C           -4.86349713742497       -1.29006897646972       -0.33772950640251
O           -5.75355442359291       -1.68450471329435       -1.29625170796373
C           -6.23075020566375       -0.72124409718677       -2.19918686519103
C           -4.51959134993023       -2.28236734893476        0.60566003030950
O           -5.09551424364338       -3.50616172072470        0.40336949354863
C           -4.83556819548525       -4.54668014640732        1.30589435894419
C           -3.65735347125111       -1.94427913377947        1.63146512881659
C           -3.10139372619684       -0.68315682847896        1.71219694101032
C           -1.55856426721075        3.09011781852235       -2.12529297071353
C           -1.15682541620707        1.70630475231207       -1.83656934306074
C            0.19751056632637        1.49877829621159       -1.34428364191622
N            0.57653744976746        0.39901543576958       -0.66890006375514
C            1.93802685065740        0.27147106159209       -0.20859941034174
C            2.85457885102858       -0.36347760687777       -1.27667214807675
C            4.28594072000145       -0.31966313108681       -0.82397036644324
C            5.04654676749972        0.81604059652635       -1.02288200499598
C            6.36122111330071        0.87549113646801       -0.58301283757987
C            6.93596003114109       -0.20299615905399        0.06423453886601
O            8.21158623305159       -0.25749936884841        0.53068351804929
C            9.04164701587257        0.86177133508705        0.34677594094906
C            6.16626482588553       -1.37095461344058        0.27419439640902
O            6.81273625390542       -2.38191168364590        0.91538629902528
C            6.13353270509560       -3.59269512546282        1.13043385069519
C            4.85644998596692       -1.40935599271657       -0.16775891566672
C           -0.21040365461860       -0.80558566965291       -0.78302244572428
C           -3.77049725647881        2.81991814016059        0.72624162066639
C           -4.37552034256468        3.14101840169204        2.09739863669391
C           -3.12031226640958        4.08938459714273        0.18371644297800
H           -4.55830219609595        0.70151838998496       -0.98138382614529
H           -6.72417764110927        0.10921964613776       -1.68188390431881
H           -6.95609894472029       -1.24198231417418       -2.82218873639563
H           -5.43058257004038       -0.32569261111018       -2.83543002351397
H           -5.17897066951344       -4.30894380220932        2.31911905584636
H           -5.40077551463515       -5.39848493977937        0.92741823853735
H           -3.77239074097854       -4.81167447980942        1.33626923391178
H           -3.42880082819552       -2.65878731611723        2.40792059272808
H           -2.48668225594141       -0.45197034498247        2.56489957852399
H           -2.32474485340663        3.22849132259264       -2.85349174112604
H           -0.83328221552877        3.85952586121844       -1.97726155845953
H           -1.89039853273029        1.31479906016792       -1.10099970815950
H           -1.30243474938341        1.07189295376923       -2.71263167354750
H           -1.10439962152464        0.82417403587398        1.76153088511945
H            0.80437584628745        2.37385452636878       -1.19816777031161
H            1.95164457426703       -0.34808875248928        0.69279993059552
H            2.32619030801534        1.26208426270882        0.04657559932242
H            2.74389829495707        0.20302231827722       -2.20507645184301
H            2.55059049044201       -1.39540418009074       -1.46475402427803
H            4.62439899259952        1.66849276392063       -1.53399459167076
H            6.92773204728703        1.77556434054912       -0.75982502399613
H            8.64504737110006        1.74646509102424        0.85531633065781
H            9.18727445026320        1.08535336207691       -0.71511370725069
H            9.99814556702037        0.59155043329541        0.79101502940271
H            6.84972053286429       -4.24568854970181        1.62779972981304
H            5.26101220020871       -3.45770909703180        1.77766046456929
H            5.82147960316664       -4.05307759638487        0.18711992382653
H            4.26143196496579       -2.29694084448031       -0.01498081818328
H           -0.33519664374134       -1.09622356519562       -1.83078710039258
H           -1.20325548914673       -0.64619491289305       -0.35767854005448
H            0.26942923930238       -1.61883424566414       -0.24278427924867
H           -4.59222930076457        2.53904509151714        0.05659082254805
H           -3.59377694949117        3.44928576348040        2.78442152344229
H           -4.89176884471758        2.27343801665857        2.51088799172227
H           -5.08756380091869        3.95460191250856        1.99143566350707
H           -2.31918622937881        4.39386400267968        0.84791738235493
H           -2.68996500939451        3.86048471126056       -0.80041707958790
H           -3.83446589150576        4.90024588554877        0.06869235224536
H           -0.19766658473067        2.82745659614023        2.40127351910575
