72
 energy: 58.191841731719 xtb: 6.6.1 (8d0f1dd)
N           -1.27087565891086        2.97909235725544        2.03354016139315
C           -1.54394565016077        1.95435261261061        1.31314798338230
C           -2.73890678214877        1.84892990333101        0.51662183105689
C           -3.31219621025579        0.47915607961151        0.50560252079483
C           -4.29333054870961        0.10271649683019       -0.42360794463114
C           -4.86160684811490       -1.15269346245192       -0.43097909146899
O           -5.79700423329684       -1.58961486038750       -1.32755733851920
C           -6.31487126351796       -0.66492938813602       -2.24793968917155
C           -4.46490462521507       -2.10646109873250        0.52862279899537
O           -5.04453054609174       -3.33598878060907        0.40555644003075
C           -4.74884328251793       -4.32414227927654        1.35659447746833
C           -3.55457368228691       -1.72243616145844        1.49656793115255
C           -2.99765078606534       -0.45282779938952        1.49243766414120
C           -1.87172737974039        2.71463170339516       -1.53722641420326
C           -1.19231370649892        1.41284965351841       -1.78463066136082
C            0.10580131869041        1.34665221634815       -1.11776294038931
N            0.61577469613581        0.18656410774275       -0.63125189157289
C            1.97705735431998        0.12447243748906       -0.18795372830006
C            2.90319894060289       -0.44699644180591       -1.28401823771618
C            4.33120986558848       -0.37413819082444       -0.84215046593233
C            5.06987769453897        0.77708308059856       -1.03628368183268
C            6.38072162199497        0.86244003709428       -0.58936063186401
C            6.96892209824434       -0.20620313011234        0.06371652276224
O            8.24743309420913       -0.23925021691122        0.53337116974432
C            9.05640886009776        0.89306131910092        0.33474039492126
C            6.21875701474737       -1.38334884883409        0.27865540621669
O            6.88068018907060       -2.38214762274954        0.92907747847645
C            6.22430590044831       -3.60290744950482        1.14359932816567
C            4.91363363578230       -1.44943843650275       -0.17284513981427
C           -0.12924015706932       -1.04982704091180       -0.71294320433562
C           -3.80843865946571        2.93904279853703        0.63199523177057
C           -4.43784922879408        2.94840810680785        2.02904850965566
C           -3.25555625566550        4.33379310440319        0.35175953949426
H           -4.60191237470721        0.82793630906521       -1.15518206895361
H           -6.78513819531136        0.18620415873278       -1.74326276141929
H           -7.06586713267227       -1.21193422719170       -2.81462924213147
H           -5.54608671165662       -0.29540442342754       -2.93627490332523
H           -5.03067314622307       -4.01413173737270        2.36854850886496
H           -5.34560448737138       -5.19022665111015        1.07415188441261
H           -3.68929342758569       -4.60464176188086        1.34465792962282
H           -3.25563901852383       -2.42969755599765        2.25625640619883
H           -2.31288121916587       -0.20327346761410        2.28726514684947
H           -2.66500872716673        2.90051315149850       -2.24452431119737
H           -1.17251627812414        3.54270609917236       -1.46941185293042
H           -1.84398583105935        0.68396767528417       -1.33500292981202
H           -1.16331129200180        1.21370412271978       -2.87267136317348
H           -0.82253035812724        1.15377496612096        1.19874584675397
H            0.75456473473788        2.19347926952985       -1.08777423371277
H            2.06183521304240       -0.48796081252746        0.71618428493920
H            2.30586690095638        1.13216144908637        0.06920666760405
H            2.75107294908600        0.13975610815297       -2.18963238667412
H            2.61604836457311       -1.48084808886027       -1.49293222931468
H            4.62362783571322        1.61735181235973       -1.54646699549638
H            6.93223644151861        1.77078009077351       -0.76711067367500
H            8.64622573574323        1.77658960476425        0.83555882256198
H            9.19236412790161        1.11204631343642       -0.72987851611018
H           10.01879358905675        0.64159026125850        0.77770525168141
H            6.95153762976129       -4.24274750526690        1.64322555766173
H            5.34862040726018       -3.48220491145751        1.78900205016036
H            5.92110890746759       -4.07165385495605        0.20132405210304
H            4.33216351176207       -2.34467750375316       -0.01199767363860
H           -0.28999809289529       -1.35957245128693       -1.75175379750464
H           -1.10871793843329       -0.93945596983906       -0.24026090744934
H            0.39521111166076       -1.84429322704972       -0.18540195171116
H           -4.62556686673990        2.73293714116196       -0.07663664616705
H           -3.67493064881040        3.17708219545239        2.76299895892484
H           -4.89743160990811        1.98921041149129        2.26929319568048
H           -5.21329233401732        3.71126697242317        2.06980751246859
H           -2.46477743284408        4.52949728202938        1.06828025000743
H           -2.85192028270222        4.37356718467734       -0.64901200878870
H           -4.02838353149948        5.08693636084702        0.43487924246343
H           -0.39166873385914        2.83259449532590        2.51849217515745
