72
 energy: 60.875430346891 xtb: 6.6.1 (8d0f1dd)
N           -1.07705905507388        2.92197542702790        1.89275703874842
C           -1.59431963216072        1.80534116887063        1.50316181957314
C           -2.82042828995910        1.67041306194608        0.83257880298497
C           -3.36871320032165        0.33903110472131        0.71806066083328
C           -4.28822209160830       -0.01345845927315       -0.29025977407482
C           -4.86016651249679       -1.26109773087889       -0.36199309872323
O           -5.76538219962953       -1.66180855693545       -1.30133768506810
C           -6.24925747600859       -0.70769601280334       -2.21029496298909
C           -4.50795016258806       -2.24368090785912        0.58742066982825
O           -5.08485011404715       -3.46895981705412        0.40405506154352
C           -4.81534350811517       -4.49750310481099        1.31571099035109
C           -3.63640211506883       -1.89570297666638        1.60227053209485
C           -3.07578722119873       -0.63651577609795        1.66551569593281
C           -1.61143182090059        3.03706978154144       -2.00010463184209
C           -1.15447409831855        1.65036429636374       -1.81296726347549
C            0.19355827581186        1.46362684807362       -1.29830055688180
N            0.59245127077497        0.35112008926859       -0.65984865019828
C            1.95350689823080        0.23835455835074       -0.20435214984921
C            2.86876586834266       -0.38105214576828       -1.28144819392340
C            4.29894141673927       -0.33123480168929       -0.83024112439023
C            5.05406318314499        0.80857331003081       -1.02616806928471
C            6.36691916311920        0.87360144163128       -0.58241150764482
C            6.94398293052424       -0.20412762309479        0.06551124592511
O            8.22000658436069       -0.25316614514288        0.53269012088979
C            9.04567613700345        0.86915855152795        0.34603448724805
C            6.17828288444252       -1.37482047585324        0.27637211960690
O            6.82865188047166       -2.38246567683940        0.91844481603218
C            6.15414504313437       -3.59545260935484        1.13204675124664
C            4.86950113402562       -1.41857335923763       -0.16882665994991
C           -0.18905765648256       -0.85876683884325       -0.77142361574554
C           -3.77328067119864        2.84520146570094        0.70298730284634
C           -4.38949823260850        3.09858701626526        2.08682877656129
C           -3.14863413556570        4.14999266566047        0.21436573267816
H           -4.56348222424913        0.72570781342145       -1.02268528631188
H           -6.73703345630233        0.12774977553662       -1.69629020317629
H           -6.97990547272267       -1.23284338056953       -2.82307379571811
H           -5.45553184746289       -0.31803038286726       -2.85829080246046
H           -5.14375617490907       -4.24376506913483        2.32929614562490
H           -5.38781794080575       -5.35330346968080        0.95972797604137
H           -3.75265340216464       -4.76548161847042        1.33466135963328
H           -3.39999518026345       -2.60412215184229        2.37929688311118
H           -2.45170563761821       -0.39566575668234        2.50675473238223
H           -2.38705512272529        3.18043851756365       -2.71499317669123
H           -0.89100419965817        3.81018564654510       -1.85882555941495
H           -1.87929402723166        1.17773410202212       -1.13883075835006
H           -1.28355111230368        1.10203862725534       -2.74741877451425
H           -1.05246717454105        0.85488953003519        1.60937449477581
H            0.82286092374301        2.33263648564902       -1.18038017044427
H            1.97918012953743       -0.38042710011837        0.69664228362048
H            2.32351666961609        1.23409475581163        0.04927722112208
H            2.74896122532555        0.18933594926895       -2.20451123543080
H            2.56817946059384       -1.41333155096859       -1.47230187523205
H            4.62540148512117        1.65758834789231       -1.53661584783424
H            6.93080219430993        1.77547555883189       -0.75563296964803
H            8.64535413262858        1.75370407005008        0.85254024557561
H            9.18822262109281        1.09219864402963       -0.71653500006561
H           10.00366698607354        0.60300484042555        0.78955212871054
H            6.87218736496031       -4.24668190836546        1.62964735326022
H            5.28065353322905       -3.46351318049375        1.77845734318055
H            5.84396953030319       -4.05638061444568        0.18841615002812
H            4.27719929530272       -2.30794064862365       -0.01575854593424
H           -0.32551194889649       -1.15405544296727       -1.81746102622721
H           -1.18077619221519       -0.71181403840101       -0.33436885695283
H            0.29912312977762       -1.66989801547602       -0.23562955297937
H           -4.59705458947344        2.57664569043628        0.02395349778537
H           -3.61174104025168        3.38868508554632        2.78558125630404
H           -4.89226080897710        2.20645204806352        2.46304587315695
H           -5.11676143754827        3.90395094045552        2.01565591185746
H           -2.34919067450012        4.42672760932235        0.89447841521710
H           -2.72872618014712        3.97001508819687       -0.78021276948467
H           -3.87388203401416        4.95713074192757        0.14033698286281
H           -0.22200590900636        2.84689565968939        2.44464477911727
