72
 energy: 59.461938922297 xtb: 6.6.1 (8d0f1dd)
N           -1.05145821158453        2.91199930255728        1.86090716429990
C           -1.60207329555808        1.79024975890762        1.53401804784907
C           -2.82953812559853        1.65153366811129        0.86555433594881
C           -3.38133644407045        0.32236922538712        0.74785079647319
C           -4.29282100929838       -0.02782443870352       -0.26897991908425
C           -4.86200600339066       -1.27585595598987       -0.34997480731223
O           -5.76018352136461       -1.67321470371822       -1.29846136094719
C           -6.24009134848342       -0.71447180501667       -2.20480533976305
C           -4.51428060161419       -2.26305840043963        0.59666456430547
O           -5.09016153047719       -3.48776317868016        0.40362492887131
C           -4.82519562401324       -4.52231345203520        1.31060455457673
C           -3.64743289628626       -1.91984826181587        1.61714399350054
C           -3.08863935794139       -0.65994352259884        1.68906657880667
C           -1.58530520971521        3.06633600229674       -2.06063237010421
C           -1.15426638341774        1.68252263025112       -1.81888734306283
C            0.19891641268482        1.47922578877905       -1.32329711012737
N            0.58378881547295        0.37449056165287       -0.66147847026222
C            1.94603875046368        0.25448481445408       -0.20599575471188
C            2.86176683260811       -0.37222080352556       -1.27906765450211
C            4.29247270597032       -0.32558268766583       -0.82714356259835
C            5.05033936254129        0.81211759178164       -1.02470635093645
C            6.36417179973741        0.87391755062134       -0.58323705659571
C            6.94002447093004       -0.20376736903117        0.06498442038128
O            8.21588228492885       -0.25546381815066        0.53193297607730
C            9.04377280649061        0.86537426487738        0.34652088132935
C            6.17222504480694       -1.37298157919987        0.27556888138181
O            6.82070644244150       -2.38225697599957        0.91718373441797
C            6.14387814328711       -3.59409328739887        1.13106928666153
C            4.86296930365599       -1.41408813276642       -0.16823406752828
C           -0.20050054970997       -0.83243361787931       -0.77710008160951
C           -3.77116742957123        2.83206046877980        0.71577364432980
C           -4.38226444494605        3.11883215168017        2.09340253861424
C           -3.13437337505019        4.11946530136608        0.20039599730977
H           -4.56092844493099        0.71247666572994       -1.00275839140125
H           -6.73057393796655        0.11857069413319       -1.68908015050893
H           -6.96777453043785       -1.23717909250446       -2.82345679992862
H           -5.44285804221967       -0.32163501204599       -2.84668485185757
H           -5.16096583309671       -4.27664895268437        2.32419014403385
H           -5.39406177209051       -5.37637316818963        0.94378234266518
H           -3.76216637254957       -4.78874953221399        1.33491977020935
H           -3.41485181434999       -2.63087910603092        2.39428145220528
H           -2.46984916821261       -0.42327853112147        2.53617650567548
H           -2.35438547328959        3.20715219230312       -2.78314760709263
H           -0.86196639745235        3.83669148754360       -1.91781801240451
H           -1.88476204255651        1.24602466546755       -1.11834534232604
H           -1.28910143030830        1.10290728388535       -2.72704880463105
H           -1.07582684933020        0.83642541078366        1.68231230207964
H            0.82138032501751        2.35244707175451       -1.19568700232070
H            1.96638431170065       -0.36418009526028        0.69539828020812
H            2.32545821160242        1.24775745543122        0.04790328528900
H            2.74650187902824        0.19631389761508       -2.20464513836475
H            2.55951540910369       -1.40431441328801       -1.46845211716811
H            4.62487736530710        1.66290707494829       -1.53534245101069
H            6.92941559129355        1.77487084975440       -0.75836422479600
H            8.64517208021504        1.75006733663480        0.85390203824926
H            9.18768577536059        1.08873500886450       -0.71578160370419
H           10.00105956859244        0.59732334305123        0.79033897552030
H            6.86093396750948       -4.24644503534849        1.62841482073656
H            5.27084701873913       -3.46074762096819        1.77787085286146
H            5.83280380797312       -4.05449617733637        0.18744740519211
H            4.26930302869710       -2.30254298077706       -0.01536634897054
H           -0.33059318342595       -1.12461316521982       -1.82471616995361
H           -1.19333575591257       -0.67962218417169       -0.34650586091764
H            0.28294872384752       -1.64504964547216       -0.23919437935484
H           -4.59369910153962        2.55750768123119        0.04015401359737
H           -3.60260008205052        3.41849833242946        2.78714893133006
H           -4.89266633499774        2.23836417135913        2.49133729696162
H           -5.10255098492589        3.92960676644868        2.00555610721823
H           -2.33317244292254        4.41068419865088        0.87141223251231
H           -2.71085030680500        3.91342195318964       -0.78962566468280
H           -3.85381914033790        4.92878840591604        0.10487062661581
H           -0.21270454716140        2.82475489298091        2.43124279852753
