72
 energy: 65.590326422788 xtb: 6.6.1 (8d0f1dd)
N           -1.21571050431384        3.00998038575515        1.98954485306877
C           -1.55268914255438        1.93886602536667        1.35304987383957
C           -2.76618147713766        1.78862316922325        0.63373712813472
C           -3.32576967101566        0.43857766908565        0.57015181011569
C           -4.29050023374026        0.06875283906307       -0.38559919880394
C           -4.86295219917426       -1.18310582958667       -0.40889873028874
O           -5.78944618952816       -1.61255710010206       -1.32055953235548
C           -6.29635829881540       -0.67759181189082       -2.23651240869031
C           -4.47840518251239       -2.14561075483892        0.54666727427983
O           -5.05737019729066       -3.37520033631602        0.40470628289359
C           -4.76814865392078       -4.37405540905747        1.34452072109526
C           -3.57951591013985       -1.77227793986587        1.52999413870948
C           -3.01605055345476       -0.50980835249593        1.54297379113138
C           -1.78178821333661        2.83326771867105       -1.68465562469327
C           -1.17693593643894        1.48195342875996       -1.79717705064653
C            0.13394334405770        1.38198072492704       -1.17341065182942
N            0.60875587234143        0.23577088510773       -0.64786232495136
C            1.96982205573675        0.15743363925284       -0.19416919468609
C            2.89320275624233       -0.42743925651245       -1.28480923937389
C            4.32303567639948       -0.36039775475429       -0.83929247426808
C            5.06635050979728        0.78742405754959       -1.03350305860844
C            6.37756730761636        0.86715693643430       -0.58657629091544
C            6.96076343701564       -0.20513740154164        0.06482357734735
O            8.23843483362348       -0.24253813366318        0.53328274450313
C            9.05292792796845        0.88637906352780        0.33818992412880
C            6.20656198461017       -1.38038027201658        0.27846078720128
O            6.86530927699138       -2.38180204335971        0.92639878863403
C            6.20431135831491       -3.60005920062789        1.14089775709021
C            4.90078887662324       -1.43994037708788       -0.17255576322171
C           -0.14634720978690       -0.99482352250312       -0.73290133045780
C           -3.79872290465119        2.90953777050552        0.64706388187465
C           -4.42682485600896        2.99061610566900        2.04508067838868
C           -3.22605107733781        4.28452776174084        0.30769227329631
H           -4.58918973844628        0.79943314156743       -1.11642236921379
H           -6.77104196407369        0.16943196346928       -1.72905153024457
H           -7.04150379821705       -1.21656888715131       -2.81807826468543
H           -5.52008531608740       -0.30167398144283       -2.91307512751209
H           -5.06313854463277       -4.08001701695160        2.35766827292331
H           -5.35679981647022       -5.23981080491589        1.04436948080614
H           -3.70723434886413       -4.65062587755671        1.34210452074845
H           -3.29772802268647       -2.48159463683122        2.29258450053640
H           -2.34828416399916       -0.25993639331441        2.35068489400734
H           -2.57732978521603        2.99642319860797       -2.38289618513174
H           -1.06914803321614        3.63127909739147       -1.58350690718311
H           -1.85513900154374        0.82306336649096       -1.27934982807704
H           -1.16731109119132        1.16160527186851       -2.84998120028012
H           -0.87429595206872        1.08982012462311        1.34078288644140
H            0.78562075460879        2.22862849839516       -1.11599397416366
H            2.03607590501059       -0.45890565521973        0.70771944893168
H            2.30996446673681        1.16142625328379        0.06335580069608
H            2.74947491526713        0.15472540712603       -2.19503091937194
H            2.60238080297637       -1.46093972025680       -1.48896180880004
H            4.62449786989243        1.62975594033964       -1.54366755902543
H            6.93320243890454        1.77349558910521       -0.76209114207834
H            8.64588169497924        1.77019179309297        0.84069845697052
H            9.19132918766246        1.10659803883429       -0.72557686467861
H           10.01411501185029        0.63047761305807        0.78202730300382
H            6.92886799922818       -4.24363703571981        1.63993218175361
H            5.32936834526999       -3.47642806114561        1.78673015085267
H            5.89923444980387       -4.06680706139518        0.19833466268395
H            4.31641836093347       -2.33322916442682       -0.01429521433644
H           -0.30274512919590       -1.30145723461167       -1.77295573158922
H           -1.12936668509067       -0.87407563722533       -0.26975364158940
H            0.36213518678284       -1.79714689644363       -0.20137480534699
H           -4.61942787680596        2.68453194216063       -0.05064778261620
H           -3.66052492080379        3.23954165249917        2.76812777591322
H           -4.90072481279730        2.04920478051460        2.32812917178977
H           -5.18746295331264        3.76663060107790        2.05203118498306
H           -2.43621693645452        4.48970087673988        1.02176721094291
H           -2.81116852701937        4.25802021471118       -0.69065454741897
H           -3.98059925206247        5.06196542473059        0.34536069117374
H           -0.36681817125402        2.88158553010912        2.53294936913538
