72
 energy: 63.946758492589 xtb: 6.6.1 (8d0f1dd)
N           -1.14147290081430        2.96164259303447        1.95235134807333
C           -1.58859524734930        1.86261698125239        1.44482003357174
C           -2.80551540761622        1.71415747988876        0.76199133316715
C           -3.34671821956990        0.37619530388714        0.65852063010069
C           -4.28394944829717        0.01747474082802       -0.33130920008882
C           -4.85775662334184       -1.23080128902135       -0.38537943954556
O           -5.77452047518473       -1.63962638194951       -1.30900337968789
C           -6.26781688237875       -0.69476185778286       -2.22158848781842
C           -4.49475623230716       -2.20473058981549        0.56901082469795
O           -5.07379963098876       -3.43117383422623        0.40528961881315
C           -4.79633706236527       -4.44778090980450        1.32735326569764
C           -3.61042073367959       -1.84850743198205        1.57015021285677
C           -3.04846964933585       -0.58883906261622        1.61555498403319
C           -1.67295690074085        2.96989877266284       -1.87371390454592
C           -1.16102738443361        1.58616740230416       -1.79319936927542
C            0.17593335038664        1.42618355422944       -1.24409293790736
N            0.60255152770010        0.30006652332980       -0.65702619454065
C            1.96379931020945        0.20439043244186       -0.20128183855451
C            2.88046157170611       -0.39995697883824       -1.28475066232822
C            4.31038866168014       -0.34309014658617       -0.83469466576849
C            5.06040442218322        0.80026309870657       -1.02890095897988
C            6.37233612716438        0.87199385434032       -0.58258763260560
C            6.95202087023470       -0.20462408736963        0.06597057811637
O            8.22798573220368       -0.24809189997759        0.53358499138815
C            9.04912804518520        0.87679324628864        0.34386028408419
C            6.19051750240657       -1.37817039893475        0.27781346989635
O            6.84414548026614       -2.38274911072185        0.92155807296061
C            6.17431542235688       -3.59787867704609        1.13547729714718
C            4.88248127372901       -1.42767601727609       -0.16944423996316
C           -0.17008222292978       -0.91451617331386       -0.75725091382963
C           -3.78369587423555        2.87090579056217        0.67631017748181
C           -4.40423642823471        3.05753351518078        2.06886140139943
C           -3.18179526928969        4.20809354442700        0.24978763658056
H           -4.57138948971834        0.75473445310157       -1.06095610165044
H           -6.75021238281255        0.14514144541828       -1.71033710762642
H           -7.00454538077860       -1.22539526838318       -2.82168738737274
H           -5.48110259926339       -0.31138554755063       -2.88145430210040
H           -5.11063680767443       -4.17781648549435        2.34094372887772
H           -5.37575627615205       -5.30745489736823        0.99353016322302
H           -3.73440430471924       -4.71910634041307        1.33658879176270
H           -3.36285648503916       -2.55315319611746        2.34629584759170
H           -2.41187993769840       -0.34158627072489        2.44484072371214
H           -2.45909582460449        3.11791220039239       -2.57772580601300
H           -0.95582725901298        3.74866214152754       -1.75014618552443
H           -1.87077162919032        1.03263669013753       -1.17988828031759
H           -1.22749716020511        1.12813835605543       -2.78271429927244
H           -0.99596329299341        0.95178527212875        1.49654733788533
H            0.81636039794286        2.28627151185928       -1.14614348897413
H            2.00172676875284       -0.41478519421771        0.69863204715320
H            2.31979935923980        1.20401351710486        0.05423744212248
H            2.75202982917616        0.17461067164725       -2.20299663800774
H            2.58399520678887       -1.43256072494249       -1.47952203772170
H            4.62626957938058        1.64629341540041       -1.53941689284691
H            6.93231378196496        1.77718447258640       -0.75452626079859
H            8.64588794493140        1.76096639409755        0.84876527990311
H            9.18976529793174        1.09870675321328       -0.71911465872398
H           10.00828836722080        0.61436418633353        0.78740016265998
H            6.89454629126974       -4.24641360061543        1.63383871007540
H            5.30015823187356       -3.46871571127170        1.78153705743017
H            5.86594429613696       -4.06062749978224        0.19217557300516
H            4.29291917351041       -2.31870384557573       -0.01535814315598
H           -0.31595095589287       -1.21354800293382       -1.80052834839404
H           -1.15872547357725       -0.77703994276633       -0.30808822907462
H            0.32868905606198       -1.72118917432337       -0.22490056041775
H           -4.60647242183649        2.61964477364518       -0.00881429082597
H           -3.63087439985069        3.32865328250289        2.77855399263386
H           -4.89290336203270        2.14417791442945        2.40302461879678
H           -5.14429221423292        3.85115904012789        2.03230722624130
H           -2.38421330020807        4.45888369324606        0.94314367147841
H           -2.76538094523007        4.08056241905478       -0.74682722893527
H           -3.91440264352394        5.01278376989124        0.21274950598526
H           -0.28064828221495        2.86533990745495        2.48708371021758
