72
 energy: 56.679523794038 xtb: 6.6.1 (8d0f1dd)
N           -1.02283401669509        2.90269329602354        1.80392594213379
C           -1.61504583036745        1.77124780623946        1.59705133104253
C           -2.84745952991679        1.61909198906454        0.93418519889824
C           -3.40720742248350        0.29255361615710        0.80942108608068
C           -4.30532710718799       -0.05064276865638       -0.22336418416287
C           -4.86397424138752       -1.30274246763905       -0.32583357590979
O           -5.74677824656400       -1.69555034483810       -1.29378212036212
C           -6.22142615399113       -0.72850852200226       -2.19362712218428
C           -4.52427411108423       -2.30106476455303        0.61365276574825
O           -5.10126463980638       -3.52388286620843        0.40285267378909
C           -4.84618417550393       -4.57069352889000        1.30027530135851
C           -3.66704005589825       -1.96850927778345        1.64544752407968
C           -3.11314695297841       -0.70636121160535        1.73540774663553
C           -1.52611687172488        3.11273929485279       -2.18997812303302
C           -1.15694500655743        1.72993682838650       -1.85226421786909
C            0.18858032939124        1.52944708457265       -1.32859072400779
N            0.57462340424021        0.41972439014767       -0.68067226426166
C            1.93141089620804        0.28684057223735       -0.21091005750849
C            2.84821271310099       -0.35498142298892       -1.27399059204363
C            4.27999875404893       -0.31346639106356       -0.82088198827139
C            5.04303912270211        0.82045521888729       -1.02091686764364
C            6.35860844560262        0.87718019842334       -0.58335642922313
C            6.93185371268549       -0.20230297583197        0.06375256641528
O            8.20708577238525       -0.25981756005975        0.53044481955057
C            9.03932506996954        0.85817560585267        0.34789033188028
C            6.16018708115270       -1.36889785023348        0.27319346329392
O            6.80446144081245       -2.38171940157910        0.91376790450393
C            6.12299071520576       -3.59140024777535        1.13013663892410
C            4.84978278490317       -1.40451715056193       -0.16699202890567
C           -0.21928458565807       -0.77853774245595       -0.79069269804924
C           -3.76940191606624        2.80693271911860        0.73869648851481
C           -4.37522101089976        3.16148678449027        2.10266848620396
C           -3.10436965704301        4.05777146416917        0.17120592428226
H           -4.55756200435652        0.69643572965548       -0.95654828455446
H           -6.71780443946221        0.09934909658817       -1.67499231464151
H           -6.94403083502915       -1.24693710952267       -2.82149669979558
H           -5.41863116868169       -0.33101707129280       -2.82420755103025
H           -5.19719351126578       -4.34095564311855        2.31279645415398
H           -5.40731694000101       -5.41974814081649        0.90874250950276
H           -3.78300900958319       -4.83450925704872        1.33733645593019
H           -3.43867524692088       -2.68935472432171        2.41741310395782
H           -2.50242403998545       -0.48075427362999        2.59342489187785
H           -2.29143739739399        3.25440481812927       -2.91942821198997
H           -0.79806553742898        3.88132605038743       -2.03478300091526
H           -1.90044369781370        1.38733318444064       -1.08777132453784
H           -1.30994944489222        1.03681115632713       -2.69299462163609
H           -1.11218259894712        0.83354765020079        1.83857543980556
H            0.80725770989312        2.39653807457058       -1.19103634958631
H            1.93876672945655       -0.33098891106484        0.69220292535324
H            2.32267453961543        1.27589642450485        0.04383374482698
H            2.74005763876029        0.20895270151859       -2.20440677950211
H            2.54192600052219       -1.38650140474347       -1.46095966809253
H            4.62315883816050        1.67433535110905       -1.53173394361629
H            6.92632007948646        1.77615380648161       -0.76154638836438
H            8.64406409892362        1.74346749055967        0.85629855732355
H            9.18645000140589        1.08209502080064       -0.71377436985730
H            9.99503876731534        0.58596707762807        0.79270910610086
H            6.83890261991967       -4.24404455118382        1.62755938913802
H            5.25130065681662       -3.45479335531204        1.77833829665210
H            5.81006354283147       -4.05227271727085        0.18733267892014
H            4.25343409157022       -2.29121118376886       -0.01392824043601
H           -0.34062578502149       -1.06644782137358       -1.83855177768471
H           -1.21190178108549       -0.61113180351225       -0.36970223752104
H            0.25486157097318       -1.59348618281148       -0.24823774901980
H           -4.59147451130344        2.51916389611762        0.07327527663693
H           -3.58877172831468        3.47936475557896        2.78136023869925
H           -4.89495908903138        2.30685765528968        2.53507497832662
H           -5.07621800705252        3.98083931349707        1.97894483323409
H           -2.30335602938071        4.37539324028505        0.82821400986568
H           -2.66294881909548        3.81301004164422       -0.80616725004213
H           -3.81615930600804        4.86640689462480        0.03849849552803
H           -0.18321586065612        2.83224572043373        2.37335770781302
