72
 energy: 13.044217808763 xtb: 6.6.1 (8d0f1dd)
N           -1.38301770545559        2.91554815036711        2.15049240053110
C           -1.53571040102368        2.05086233365554        1.23485373866224
C           -2.69594709915567        1.98827130286755        0.29165977066665
C           -3.28612227227077        0.56273299323685        0.39924337200202
C           -4.29140302786236        0.17029487245356       -0.49233026090400
C           -4.85507917335160       -1.09122686060078       -0.47299340157303
O           -5.80688339593101       -1.54261782386705       -1.34089982340265
C           -6.35099253545582       -0.64002468649087       -2.26864724590520
C           -4.43506036538982       -2.03085685397810        0.49245566278364
O           -5.01980793589523       -3.25858931716001        0.40812588447698
C           -4.71025427399283       -4.22488355388504        1.37926648982076
C           -3.49729634681645       -1.63242678910216        1.42565374917537
C           -2.94580872714414       -0.35165131763586        1.39044414179497
C           -2.05328327066390        2.49172523665605       -1.26886646423847
C           -1.22379088017891        1.31266436449109       -1.73223728771213
C            0.05032292733417        1.26967476949109       -0.98779724201996
N            0.63211607537736        0.08221832459433       -0.59411198025390
C            1.99398237449528        0.05447225048831       -0.17715471538045
C            2.92321443483520       -0.48902865558494       -1.28452886474675
C            4.34736962095017       -0.40251277195067       -0.84716022577440
C            5.07465822082471        0.75630791684118       -1.04128339952953
C            6.38384852295446        0.85331300419339       -0.59400977758074
C            6.98293516152595       -0.20782715507404        0.06202929001864
O            8.26390746245044       -0.22857263243975        0.53279727597728
C            9.06311364793648        0.90828860847978        0.32844267954892
C            6.24261183026252       -1.39104529980840        0.28000045000644
O            6.91329997769735       -2.38367008120105        0.93155312524788
C            6.26498236412947       -3.60866858381746        1.14769938432095
C            4.93847033135533       -1.46893163995134       -0.16972409795608
C           -0.09224057943172       -1.16039750834575       -0.67348574350036
C           -3.83479005694138        3.00108558544579        0.59546292327706
C           -4.45887442587379        2.86829800889751        1.98623165875233
C           -3.31590322977323        4.42597865674362        0.43587930429590
H           -4.62560359157246        0.87867234498001       -1.23027430808741
H           -6.81456807831930        0.21854704827013       -1.77080968211637
H           -7.11317828490473       -1.20180545153731       -2.80589160987526
H           -5.59937894355378       -0.28306657606305       -2.98154402708287
H           -4.96536218937232       -3.88312116672136        2.38769140354988
H           -5.32101772038972       -5.09231400527619        1.13357801532604
H           -3.65351607507859       -4.51238103137825        1.34859450770521
H           -3.17416099812615       -2.32928841537331        2.18707079361434
H           -2.23704103541678       -0.09856889498309        2.16348825734502
H           -2.83037849575975        2.66635950535125       -2.03215235439607
H           -1.40618113609615        3.38669249192999       -1.28349325400643
H           -1.83187482865337        0.46357038429067       -1.47918969957334
H           -1.10637650813828        1.33888090295010       -2.83366079217893
H           -0.74986547968154        1.35720564877155        0.93563538339905
H            0.70900142760697        2.10816150842830       -1.02141600280514
H            2.09289224093251       -0.56526357328998        0.72209825188248
H            2.30143835944184        1.06825508980469        0.08223673667926
H            2.75856889353755        0.10851583712753       -2.18091800335556
H            2.64592461650435       -1.52268748980480       -1.50215232795914
H            4.62356488907386        1.59276554862800       -1.55355228445822
H            6.92941530812336        1.76493823564441       -0.77615126378616
H            8.64809205846195        1.79112830488035        0.82711458683257
H            9.19559698406212        1.12469279509989       -0.73739410768487
H           10.02797234271855        0.66445051365707        0.77024854365188
H            6.99725471514196       -4.24132683969620        1.64825026588524
H            5.38797884113617       -3.49367388251161        1.79299547253203
H            5.96503588132069       -4.08116303721153        0.20612018783538
H            4.36376901941486       -2.36872714616367       -0.00937054058123
H           -0.25906159295811       -1.47488660702992       -1.71119380376973
H           -1.06661803469331       -1.07433558512973       -0.18332129591560
H            0.46770852302536       -1.93811072279564       -0.15869586390590
H           -4.63975369974926        2.83323443366337       -0.13285325125428
H           -3.70795457860245        3.05583281892586        2.74536067598802
H           -4.88573075112772        1.88006630557534        2.14110603029912
H           -5.26014995383086        3.60004302409035        2.09370801832572
H           -2.52553889332080        4.59841092515906        1.16029266884134
H           -2.93069470181115        4.58231959692967       -0.56424551076131
H           -4.11759895158448        5.13499364798771        0.59914080247461
H           -0.48399327147336        2.78635502074767        2.61837830456049
