72
 energy: 0.167231602368 xtb: 6.6.1 (8d0f1dd)
N           -1.43196179108823        2.86974168912346        2.19745290306811
C           -1.54582576794245        2.09199309425044        1.20561390488785
C           -2.71022434828299        2.02595037495621        0.26524786072978
C           -3.29932032209861        0.60269798205511        0.37022090397051
C           -4.29717305174862        0.20303297469979       -0.52481334936599
C           -4.85195750344327       -1.06260863595764       -0.49590088598224
O           -5.81084672348610       -1.52119935985893       -1.35091537416508
C           -6.36816025682510       -0.62765750559567       -2.27970936247853
C           -4.41940813611929       -1.99509263638589        0.47206118082940
O           -5.00819833776093       -3.22196801923375        0.40863011602141
C           -4.69219506092196       -4.17434416483069        1.39143196028494
C           -3.46589618971319       -1.59568894645749        1.38844724256748
C           -2.92281598795327       -0.31242887819124        1.34411820965531
C           -2.11307438934952        2.41942918741710       -1.21688411755553
C           -1.24050293005469        1.26277883417468       -1.70130811870098
C            0.03059854542764        1.21279998423471       -0.94542343813168
N            0.63505065043269        0.02977996055716       -0.58017199977352
C            1.99891895527610        0.01974741617782       -0.16994333845349
C            2.92911729382430       -0.50944942759479       -1.28289826821912
C            4.35343320444366       -0.41546065153076       -0.84553002359545
C            5.07589740899231        0.74602591085647       -1.04268460357248
C            6.38540526973867        0.84871684598963       -0.59775161183065
C            6.98906468389847       -0.20839313746389        0.06013379188543
O            8.26940430171946       -0.22186590756576        0.53069703979607
C            9.06591065138371        0.91604285609984        0.32463218409212
C            6.25383985178682       -1.39488661679211        0.28000816409052
O            6.92867319842719       -2.38366151753884        0.93193638383479
C            6.28438545848642       -3.61091029685108        1.15005012970572
C            4.94970642877216       -1.47876903638091       -0.16793815002007
C           -0.07516925680915       -1.21767930798581       -0.65252198274335
C           -3.85025800991170        3.03190638216433        0.58945078436611
C           -4.47508901860271        2.83118440838152        1.96955587615212
C           -3.34785156227557        4.46724083924477        0.48208619831477
H           -4.63972778956689        0.90626143306418       -1.26452834015060
H           -6.82753627380369        0.23475000062348       -1.78474042959418
H           -7.13662280108306       -1.19509899760050       -2.80210415791764
H           -5.62568960379600       -0.27707126175531       -3.00510643537165
H           -4.93345364171378       -3.81462790182695        2.39703437072661
H           -5.31029497741489       -5.04194379110504        1.16565386613189
H           -3.63702674285960       -4.46645884229897        1.35264459190307
H           -3.12998543662893       -2.28587950089240        2.14944568202876
H           -2.19877829502515       -0.04988953216598        2.09999924923626
H           -2.90688721260943        2.55245113691989       -1.96775007779915
H           -1.50244892664739        3.33059632281457       -1.25143096063673
H           -1.82421990772137        0.37034019806672       -1.53897371040945
H           -1.06579718821001        1.36494301599179       -2.78563075333749
H           -0.72197289163191        1.47692111520487        0.81475669163424
H            0.68222689138549        2.06044842066499       -0.98816150147166
H            2.10520220225049       -0.60427796847758        0.72500841644585
H            2.30014985528693        1.03544301783361        0.09216644494781
H            2.76121447607784        0.09286745784044       -2.17613332522003
H            2.65956421997790       -1.54324149125126       -1.50671105669483
H            4.62300957644050        1.58043193856717       -1.55702843782081
H            6.92774788670554        1.76197565341312       -0.78188481050022
H            8.64941882794294        1.79857672243954        0.82251222713644
H            9.19780186130749        1.13072694674838       -0.74154033113231
H           10.03147636976626        0.67494728782739        0.76639295817523
H            7.01913838228397       -4.23979224335042        1.65124469436345
H            5.40687782563639       -3.49860250708738        1.79552853846068
H            5.98599653958535       -4.08583321203105        0.20914458126802
H            4.37866338157621       -2.38085671969575       -0.00798707102775
H           -0.24388954043204       -1.53386842895728       -1.68887767305271
H           -1.04617614536485       -1.14125554759808       -0.15401306594346
H            0.50405385289729       -1.98483309323409       -0.14407874550786
H           -4.64407075335973        2.88237390046422       -0.15356535657515
H           -3.72833777056585        2.99525378259791        2.73860891340786
H           -4.88279845004709        1.82936012579888        2.07684047272801
H           -5.28724131695308        3.54398541069861        2.10778899042090
H           -2.55682678161268        4.63265316913980        1.20749842643088
H           -2.97355190429443        4.67605087732530       -0.51409490209603
H           -4.16200227992733        5.15379340344374        0.68329169330413
H           -0.52781759848762        2.78087978812194        2.66575394525717
