72
 energy: 65.818414087977 xtb: 6.6.1 (8d0f1dd)
N           -1.17934876944872        3.00891857532966        1.96104419555138
C           -1.56412710410028        1.91580652378044        1.38397133461700
C           -2.77956514680925        1.76047698204177        0.68415143185985
C           -3.33085858955282        0.41627120979325        0.60015383593453
C           -4.28543844282189        0.05021525550985       -0.36928751384437
C           -4.86168955105158       -1.19871831832612       -0.39888453482246
O           -5.78499031776015       -1.62134826563415       -1.31608621826793
C           -6.28691687302852       -0.68337636622167       -2.23132516700076
C           -4.48437643862686       -2.16612396195872        0.55447379747981
O           -5.06514377852927       -3.39469741795366        0.40457493400689
C           -4.77772894723401       -4.39881374486695        1.33849471091564
C           -3.58803837000417       -1.79957416202153        1.54216042085722
C           -3.02381994155325       -0.53904783088700        1.56603317138587
C           -1.73965308569972        2.88494086589588       -1.75419157240313
C           -1.16737052617338        1.51918923914783       -1.79735832819346
C            0.14940376239200        1.38571026409772       -1.19429139425667
N            0.60789413954922        0.25172149357917       -0.65037342969915
C            1.96984866751252        0.17145808596494       -0.19627165331806
C            2.88922706950471       -0.41921248586946       -1.28542766219849
C            4.31952655909366       -0.35513697111971       -0.83774848733765
C            5.06476295361822        0.79126602228818       -1.03185034520638
C            6.37626548604735        0.86829291724823       -0.58495882204348
C            6.95864342705759       -0.20557870555277        0.06540004912584
O            8.23530385749812       -0.24438976920863        0.53341838070343
C            9.05158415235012        0.88325713961077        0.34009207289005
C            6.20199117415836       -1.38072736497094        0.27878981829153
O            6.85898739633143       -2.38253553136582        0.92511543349159
C            6.19463221223504       -3.59927187064845        1.13942934332110
C            4.89508559850494       -1.43625157313371       -0.17045669898813
C           -0.15420370498169       -0.97064442131990       -0.74123394723530
C           -3.79509138391099        2.89458797370231        0.65667884732685
C           -4.42075512044428        3.01218731588099        2.05314122240308
C           -3.21326154671628        4.25812442814361        0.28944204458070
H           -4.58327045265210        0.78276649845383       -1.09905827153361
H           -6.76421052826341        0.16148022658868       -1.72280998650501
H           -7.02897436993489       -1.21952604634449       -2.81968929731236
H           -5.50697004362587       -0.30465952272899       -2.90224732655236
H           -5.07883993517629       -4.11284098501589        2.35234344727345
H           -5.36255457363757       -5.26381947773988        1.02870297733868
H           -3.71599976711718       -4.67281160676832        1.34009239818106
H           -3.32093258392715       -2.50462589174226        2.31226005122479
H           -2.36897334963277       -0.28791701315437        2.38243835004004
H           -2.53574308110427        3.04287440075129       -2.44852537591312
H           -1.02567118087812        3.67378991690686       -1.64044869657603
H           -1.86107224751570        0.89540352054912       -1.25721578215995
H           -1.17205825730260        1.14337371650642       -2.82577575473099
H           -0.90739781195262        1.04350121231613        1.40402430648752
H            0.79739394067919        2.24010829958397       -1.12725236316482
H            2.02403818173882       -0.44672253663211        0.70369946361518
H            2.31482006754892        1.17444316853606        0.06023555143211
H            2.75001729198087        0.16108104059679       -2.19783654210646
H            2.59659094093044       -1.45219736362726       -1.48657250910467
H            4.62576348814816        1.63480915974853       -1.54237800124107
H            6.93325199403677        1.77429826395517       -0.75947844521022
H            8.64577484745068        1.76711858713503        0.84348314256539
H            9.19100282554322        1.10411305128632       -0.72326562553017
H           10.01217252547152        0.62534567457656        0.78418999041930
H            6.91753584938164       -4.24482159922084        1.63825012521992
H            5.31991109408481       -3.47364415433983        1.78517801600266
H            5.88838966444826       -4.06467662702056        0.19660715535917
H            4.30897088906204       -2.32856627539136       -0.01463939987758
H           -0.30697089406708       -1.27342858682964       -1.78274483653328
H           -1.13920458104555       -0.84165827013692       -0.28344037094504
H            0.34941778067863       -1.77394427687483       -0.20833387204820
H           -4.61514786968576        2.66101200279490       -0.03792432278678
H           -3.65099472633770        3.26893463531573        2.77079876464920
H           -4.90082359738860        2.08011142283966        2.35581104609973
H           -5.17343432619654        3.79546715760445        2.04495391312144
H           -2.41948457975774        4.47184424213206        0.99668914905520
H           -2.79971029836060        4.19572297900081       -0.70780005795233
H           -3.95745929701958        5.04949145901710        0.30075489599600
H           -0.33802230686865        2.88335071595547        2.51986684329643
