72
 energy: 54.306578525083 xtb: 6.6.1 (8d0f1dd)
N           -1.06308603284950        2.87162853245643        1.88243417365753
C           -1.63289995743927        1.73180038747029        1.67771285675078
C           -2.87601895184437        1.57615684991291        1.03132971541611
C           -3.44524590174573        0.24743803476014        0.91403468977829
C           -4.32421666108883       -0.07402598402303       -0.14168222590959
C           -4.86817011654042       -1.33075146722562       -0.28720538415421
O           -5.72077717591014       -1.71117689358447       -1.28827283625495
C           -6.20237191236901       -0.73874961294638       -2.17675754998748
C           -4.54118811303907       -2.35116897332399        0.63382305102774
O           -5.11653481719673       -3.56938525026096        0.39454305282536
C           -4.86565718675564       -4.61648042801045        1.29262455626397
C           -3.68812488546291       -2.05095195087540        1.68122080976644
C           -3.15335062430212       -0.78104742204993        1.81998090382506
C           -1.40151368262520        3.13264726552724       -2.42266702056693
C           -1.14408899327462        1.79916371708583       -1.87691525184951
C            0.16291209909445        1.60026737698019       -1.25623325228097
N            0.56647917148987        0.44892076704704       -0.71524974913990
C            1.91125601420046        0.30443364419050       -0.22071598777052
C            2.83630527499011       -0.34429809921985       -1.27104074506448
C            4.26720999924862       -0.30550817665259       -0.81403363699227
C            5.03348456830709        0.82644434119289       -1.01610349588867
C            6.35056036635173        0.88081270280386       -0.58212259437038
C            6.92172451927162       -0.20059106944549        0.06415762679700
O            8.19911979604739       -0.26033614937015        0.52703004670478
C            9.03449547082838        0.85568905922162        0.34664318516170
C            6.14678841107398       -1.36474143099581        0.27579582067812
O            6.79403614652315       -2.37962891414837        0.90983041817475
C            6.11347861251158       -3.58869771581302        1.12911630116514
C            4.83440693301307       -1.39805587192315       -0.16011719350113
C           -0.25094414923441       -0.72915796013738       -0.81754171663239
C           -3.77126655853139        2.77434629212633        0.77811699911394
C           -4.39620184879663        3.19981416145520        2.11521118065180
C           -3.06098654722253        3.97104503594588        0.14731215316165
H           -4.55906902521500        0.68776674092621       -0.86867424518811
H           -6.70200449394724        0.08216892944022       -1.65155906735824
H           -6.92578594183870       -1.25460214888885       -2.80737384266953
H           -5.40433961924900       -0.33102530447530       -2.80789466147821
H           -5.22141951880617       -4.38365913164544        2.30282993917947
H           -5.42073232207241       -5.47041318013143        0.90610807957394
H           -3.79995578679570       -4.86986847032360        1.33641072340154
H           -3.45145141822947       -2.80251193570551        2.42010643754864
H           -2.53808458007440       -0.58059748684460        2.68409457652616
H           -2.16172892854096        3.28863160252732       -3.16144561029781
H           -0.69754949537709        3.93493580318666       -2.27499733830977
H           -1.90084224191160        1.57221950862128       -1.06267124209489
H           -1.33589189712145        1.00877300664408       -2.61645175972980
H           -1.12863497771960        0.78410982791726        1.94534128574635
H            0.81973344431435        2.44447420058321       -1.13460465876659
H            1.89830106657371       -0.30613128616676        0.68605129678774
H            2.30505898414612        1.28974412624136        0.03531772792215
H            2.73530028782077        0.21002123346641       -2.20633603477752
H            2.52254192954402       -1.37423935495844       -1.44675539748369
H            4.61214379476269        1.67853460385490       -1.52817391432324
H            6.92362768054987        1.77611178849601       -0.76201453744377
H            8.64216782588403        1.74275371599182        0.85526816937592
H            9.18465276758087        1.08257389209013       -0.71430624820401
H            9.98828277544051        0.57846717894946        0.79289484818945
H            6.83167164467949       -4.23925140380367        1.62595491557726
H            5.24202319691010       -3.45296810054804        1.77862437016906
H            5.79780471108719       -4.05284048644622        0.18852132649078
H            4.23529777326465       -2.28262264027675       -0.00683698315558
H           -0.37196740939428       -1.03776060035167       -1.86094260164548
H           -1.24289873181645       -0.54230404718798       -0.39900119836238
H            0.21368878588167       -1.53993187326645       -0.26274693473406
H           -4.58859144583832        2.46661565548603        0.11778048941439
H           -3.61390082857458        3.52719893438515        2.79484502557680
H           -4.93561474755897        2.37240774858460        2.57116054422462
H           -5.09024184570228        4.02310077074947        1.95678409334045
H           -2.26256653472223        4.29985203848241        0.80340318638175
H           -2.62267521902752        3.71822302339516       -0.82103437152931
H           -3.76857621098821        4.78746119686558       -0.00569514789585
H           -0.15704006347229        2.80665694822969        2.33957793820658
