72
 energy: 65.089174407093 xtb: 6.6.1 (8d0f1dd)
N           -1.16007423555707        2.99029041967066        1.95546342374203
C           -1.57645292344435        1.89092920214435        1.41516631536565
C           -2.79211267530902        1.73620404756573        0.72536955839523
C           -3.33640082550406        0.39526977071357        0.62849263241094
C           -4.28333704489309        0.03379580822440       -0.35066503289265
C           -4.85901520954179       -1.21449410537866       -0.39214525639335
O           -5.77922337463555       -1.62941063200059       -1.31196778221373
C           -6.27731375356554       -0.68891481170355       -2.22638019894175
C           -4.48930428149533       -2.18562004285191        0.56148835443265
O           -5.06982653706760       -3.41295014115080        0.40522530629386
C           -4.78699494379831       -4.42327746167798        1.33303339599137
C           -3.59762104782855       -1.82493585354835        1.55478213247713
C           -3.03545188568426       -0.56464243574285        1.59020863601363
C           -1.70492328037155        2.92843748127315       -1.81473336066009
C           -1.16371210934491        1.55187956229288       -1.79375776562651
C            0.16397068153300        1.40283339676015       -1.21917284164212
N            0.60575051949359        0.27424591931405       -0.65364528570714
C            1.96760664212065        0.18747022839328       -0.19873631038776
C            2.88516850573746       -0.40986421926977       -1.28533772268792
C            4.31532467024151       -0.34924306631624       -0.83625908865639
C            5.06294492005391        0.79559854924386       -1.03028064334578
C            6.37469206157465        0.86989762582074       -0.58356130786747
C            6.95634733104012       -0.20542469710617        0.06568977954382
O            8.23208340913523       -0.24614142141628        0.53363512092224
C            9.05028337251250        0.88011853569182        0.34190179458500
C            6.19680359151022       -1.37980481029147        0.27848614105628
O            6.85191790868901       -2.38277852481027        0.92343290418064
C            6.18454815376856       -3.59859642802710        1.13759809652103
C            4.88912747552491       -1.43203428644447       -0.16959922921942
C           -0.16174264060462       -0.94326359033344       -0.74919943718707
C           -3.78912604968309        2.88212967316899        0.66614711503109
C           -4.41223632805473        3.03499596856271        2.06047906448220
C           -3.19817743788076        4.23326913473446        0.27034008425778
H           -4.57675144780507        0.76861325254946       -1.08027931988282
H           -6.75718639102839        0.15348875810000       -1.71657519117083
H           -7.01664938363105       -1.22249047182104       -2.82057949189370
H           -5.49406255383809       -0.30786467962354       -2.89195631036681
H           -5.09459526556239       -4.14539744629114        2.34698446656165
H           -5.36899806507550       -5.28614693905394        1.01195010983129
H           -3.72506156809743       -4.69572275271160        1.33824352387531
H           -3.34307158577012       -2.52720033553669        2.33065097332387
H           -2.39170913568970       -0.31407173767997        2.41330152080732
H           -2.49750506308138        3.08378237073812       -2.51082256807771
H           -0.99068920050749        3.71249350874259       -1.69456888810460
H           -1.86596130389788        0.96344977720124       -1.21725802330897
H           -1.19864738763039        1.12609886980035       -2.80262147956726
H           -0.94530285177607        0.99925983733471        1.45337481419169
H            0.80883715103983        2.26044173792298       -1.14062283308378
H            2.01285892728521       -0.43137146890733        0.70092080391281
H            2.31799682692420        1.18889482339339        0.05705027987295
H            2.75171187018103        0.16739991808959       -2.20088388605901
H            2.59087695086985       -1.44261442271354       -1.48292123334429
H            4.62661017784384        1.64041030406901       -1.54096606794173
H            6.93278070659486        1.77570948381453       -0.75702694458427
H            8.64584304688613        1.76412881681491        0.84621870235893
H            9.19047909683411        1.10157209528342       -0.72114383169309
H           10.01025031165219        0.62001032099477        0.78578581887582
H            6.90597045597509       -4.24578986408933        1.63622329029496
H            5.31008869539870       -3.47105057205491        1.78343966972857
H            5.87711931493478       -4.06257776639220        0.19455028486674
H            4.30115657633263       -2.32343687228398       -0.01483607925204
H           -0.31086264733251       -1.24379600950796       -1.79153535951671
H           -1.14867904461730       -0.80957854073663       -0.29586490866427
H            0.33991216594014       -1.74788109151015       -0.21688978395295
H           -4.60945575430589        2.64042993428845       -0.02437773293236
H           -3.64070407406426        3.29856999573759        2.77443829915775
H           -4.89533290743911        2.11202039848001        2.37836044505657
H           -5.15845286539966        3.82341116724170        2.03891410827767
H           -2.40195461405863        4.46430947072311        0.97042738398646
H           -2.78458610943849        4.13716322868237       -0.72636353220024
H           -3.93542275806113        5.03330368043032        0.25656829763314
H           -0.30992512536789        2.87661035484206        2.50354575796391
