72
 energy: 14.970606602455 xtb: 6.6.1 (8d0f1dd)
N           -4.08361233374501        2.02507156209280        1.83749695787610
C           -2.87843101111080        2.04497134836688        1.35827963872983
C           -2.51303295040162        3.01685234133403        0.43533079035328
C           -4.00536056205747       -0.55206109562951       -0.29055852717740
C           -5.21889794808093       -0.87408767807684       -0.83969123833172
C           -5.87790029189399       -1.97036001202682       -0.34577775724952
O           -7.05373453127524       -2.42314845595927       -0.82619432464497
C           -7.65041412513703       -1.70796085666368       -1.87301083608945
C           -5.32579543127419       -2.71169386536908        0.71284077931234
O           -6.06207272596688       -3.77526507083445        1.10656171768445
C           -5.57268963574861       -4.53486990687898        2.16982414362539
C           -4.11849694636344       -2.35525988066873        1.26455704989397
C           -3.45657827400028       -1.25542911452436        0.75440309415951
C           -1.14073874845962        2.99319518131496       -0.06297153384847
C           -0.56833075900524        1.69491203679921       -0.41534939184646
C            0.59475312868621        1.27167066650040        0.05841268827681
N            1.13749682599192        0.02786139308048       -0.03112117822172
C            2.53426086221817       -0.11513022860345        0.21165079398755
C            3.34889450752816       -0.11746930588090       -1.09393111348503
C            4.81458144304815       -0.15206358713957       -0.79447281993666
C            5.54893071619981        1.01452133460821       -0.71985658911914
C            6.90785893087742        0.98227361961370       -0.43758998204805
C            7.53941427689155       -0.22402259105371       -0.21028271920361
O            8.86010612209187       -0.38389707854159        0.06942750582352
C            9.69003860191066        0.74729751966951        0.08543706547358
C            6.79660980587597       -1.42318291289862       -0.26019474219304
O            7.51309047241381       -2.55608731412739       -0.01611166296942
C            6.84641526465888       -3.79116077328426       -0.03379860388077
C            5.44818715312555       -1.36957077203954       -0.54817647108494
C            0.44795085039903       -1.03481444677327       -0.70715156863628
C           -3.48014310155134        4.07570180928468        0.07880226651357
C           -3.78396918517754        4.90955303808264        1.31113664009662
C           -2.96100465841210        4.95262073423183       -1.02992024479511
H           -5.62339357277606       -0.26906318867688       -1.63239963592560
H           -7.92208828891881       -0.68220062074178       -1.60054839224147
H           -8.55187880818417       -2.27228849822358       -2.05237121847587
H           -7.03380584376607       -1.67869042320558       -2.78024774228598
H           -5.49737517137622       -3.94499240611824        3.09093341272342
H           -6.31674881696473       -5.31748537509990        2.28380439068402
H           -4.59175444557547       -4.97054690472474        1.94202722490125
H           -3.68711882644292       -2.91329916084650        2.07689035347897
H           -2.51814285603852       -0.94383744271630        1.19300291875257
H           -1.07487287196895        3.65918477003188       -0.89070640737788
H           -0.52051575995533        3.35652383442136        0.74492768407019
H           -3.51022056647424        0.31238965217906       -0.69034966383714
H           -1.17605294718387        1.11772910680904       -1.07801152385127
H           -2.06850606670749        1.42373512642833        1.74810192188283
H            1.19518761754316        1.98417832079583        0.59877619486033
H            2.71704151220731       -1.05396775650217        0.75010304259494
H            2.86402269519889        0.70363059104741        0.85549626710042
H            3.09919869986741        0.77782104564036       -1.66712762460651
H            3.06585872821012       -0.98978425493791       -1.68171939064794
H            5.06900440577548        1.96506916606864       -0.89624127166130
H            7.46904054506420        1.90352191622131       -0.41015951224430
H            9.40418680207360        1.44301974914714        0.88342873875239
H            9.71199365400686        1.25150836906956       -0.88443380092842
H           10.69243308172157        0.36739585568723        0.27042464470273
H            7.61229263012436       -4.53881266915148        0.16770960742399
H            6.07869112893943       -3.84822509374837        0.74472163633531
H            6.38904945044763       -3.99198365053153       -1.00863905602549
H            4.86991376688198       -2.27816162778069       -0.59487788193698
H            0.46851932566770       -0.92074268201631       -1.79313781459315
H           -0.59376761838800       -1.04345256302059       -0.38469399595913
H            0.91195210040654       -1.98624948354637       -0.44699218875163
H           -4.45180840556975        3.65666844100599       -0.19400161894638
H           -2.87574340222238        5.34964363368941        1.68920778230327
H           -4.21824530109148        4.29397152565319        2.09107903000107
H           -4.48164346495993        5.68223071717337        1.00746720832376
H           -2.11324332533443        5.53189412170433       -0.67220541441820
H           -2.70112723662999        4.42622782398208       -1.94431128230673
H           -3.74647252047564        5.63612707290375       -1.27202695943107
H           -4.23777044247052        1.44824157025750        2.68188402842313
