72
 energy: 81.941407307687 xtb: 6.6.1 (8d0f1dd)
N           -2.83305775618412        2.71820383792182        2.59866431038965
C           -2.41253173378022        2.03705626848812        1.66919266288445
C           -3.04091623357571        1.90592900123292        0.35315554018688
C           -3.66735113095556        0.48426426795110        0.27963035885876
C           -4.76698188675604        0.10665307486302       -0.46504941566828
C           -5.28638165442280       -1.15500324354805       -0.31344504506969
O           -6.29831021978944       -1.64950122235384       -1.06556064770814
C           -6.82182186135311       -0.80870166068398       -2.04622810945037
C           -4.77902048525069       -2.06325980357387        0.61819788097825
O           -5.39567064386359       -3.26415792073559        0.63345962193832
C           -4.95437132316539       -4.16934963281200        1.59836130295830
C           -3.69703282977446       -1.70817884233083        1.37137861049285
C           -3.14161650136767       -0.46281663491961        1.16249987349897
C           -1.81110645570539        2.17359194816778       -0.42593830743527
C           -1.04670056770695        1.19776785953568       -1.23446338804830
C            0.36100716496125        1.12683631886539       -0.81528013155461
N            0.83084471845921       -0.04196133376654       -0.29196159391438
C            2.21294988169790       -0.06781826546916       -0.02834952761514
C            3.07405820126951       -0.46768511418738       -1.23983259253865
C            4.51068952324145       -0.38160489558914       -0.85521987867950
C            5.22276864011746        0.79731889347948       -0.95388008224455
C            6.53995132284440        0.88506409102686       -0.53083822338415
C            7.17421671548095       -0.21793725609123        0.00262979688646
O            8.47052412254199       -0.26672496311505        0.42199820662648
C            9.24814181479240        0.89033500079963        0.26679517705659
C            6.46350262758447       -1.42399768077882        0.13361771913578
O            7.17152205394895       -2.45533983972245        0.68532150849785
C            6.50538648387714       -3.67875998710398        0.80292133821017
C            5.15784820864378       -1.48724796002177       -0.31459221327693
C            0.21312424184136       -1.30148094573012       -0.52217716661639
C           -3.85203464200915        3.14742988135403        0.00566997524210
C           -4.73369509098383        3.46304143644648        1.15363213468316
C           -3.11658386106198        4.47732611459794       -0.01874868420364
H           -5.18079338919345        0.75727673918921       -1.20835180703478
H           -7.21374412508060        0.11861421253926       -1.60352772028902
H           -7.65403945567775       -1.34939373998615       -2.47775312730076
H           -6.09490849153185       -0.53089938099218       -2.82396129120586
H           -5.04793254409484       -3.73374139013908        2.59001248878263
H           -5.60770535822582       -5.02516643437094        1.51048860952429
H           -3.90168591179904       -4.47183736412028        1.46216717285027
H           -3.27610383810966       -2.38765825148307        2.09283645281878
H           -2.26232484286708       -0.24644879704040        1.74877631435079
H           -2.20527814488176        2.89651496456199       -1.03826653385060
H           -1.13573177110924        2.50274032141780        0.29089359743780
H           -1.64393138808864        0.32527956796675       -1.00019372524852
H           -1.09207023602794        1.63329624461575       -2.21789362878264
H           -1.39909883536648        1.68806407852913        1.71544828116375
H            0.94820455147815        2.01385441229438       -0.61897557651124
H            2.39423387948106       -0.76752593334470        0.79025837146199
H            2.47837763087607        0.93575544700250        0.28877955466485
H            2.82648089774814        0.22131210428676       -2.03672037278348
H            2.80758136632570       -1.47258076522937       -1.56017139815215
H            4.75440407939470        1.67267324499826       -1.35718842194118
H            7.06708179135967        1.82135228486708       -0.62393048953896
H            8.81044510934840        1.70578836367707        0.84778162108902
H            9.31348493440729        1.20684114373985       -0.78129956844541
H           10.24023017182818        0.63546774260274        0.63899318466567
H            7.19781027765758       -4.38426524927172        1.25640627095467
H            5.60184757175533       -3.59063041114580        1.41212172983548
H            6.14911732957982       -4.04347244485581       -0.17936365091092
H            4.60197183275596       -2.39906837612520       -0.25218989099563
H            0.10985519758758       -1.52929273215283       -1.58914619920158
H           -0.77110108892308       -1.27492734798676       -0.07599501640933
H            0.81837515366828       -2.06806200071914       -0.03411066255972
H           -4.31819596100983        2.93155971195127       -0.96439009050599
H           -4.00675484663830        3.71940298257052        1.89738139594970
H           -5.31222326547293        2.64688982551693        1.45330532827238
H           -5.39584109771892        4.25859409977080        0.99478888029426
H           -2.38640159056298        4.68709909947662        0.74154760263805
H           -2.59366804865077        4.50828014930838       -0.94700345127463
H           -3.90104045188562        5.21852082511717        0.12449325788368
H           -2.20969738935831        2.70666468779746        3.35442362127737
