72
 energy: 63.011250199378 xtb: 6.6.1 (8d0f1dd)
N           -2.52961291801702        2.75550377512858        2.54614807554383
C           -2.22054865946716        2.04808743424426        1.58906253919052
C           -3.01800046703281        1.90419779862132        0.36836910867193
C           -3.64427930402653        0.51429180587012        0.32705547866480
C           -4.70009057214526        0.13635535908260       -0.47444498160825
C           -5.20791454942491       -1.13247818313919       -0.35427421110409
O           -6.20515584543107       -1.62709815586186       -1.13381364337856
C           -6.72508849381437       -0.77039692793190       -2.10265769995317
C           -4.70968298988186       -2.04295103937103        0.58170500638547
O           -5.31836227629471       -3.25180161380998        0.57810500833262
C           -4.88976852561932       -4.15689397114710        1.55116630561265
C           -3.65361873934802       -1.68044232895209        1.37159831736493
C           -3.11291486337630       -0.42467692001155        1.20308937513812
C           -1.91552419505977        2.18640500728084       -0.59138866847842
C           -1.08082862471274        1.19689305938931       -1.32674374686156
C            0.29658005704813        1.13724746583377       -0.83011104024395
N            0.79265713434075       -0.04228168848154       -0.34785682437448
C            2.17192030465793       -0.06578847706532       -0.05890749834446
C            3.05101611002528       -0.49101286452733       -1.25018109956450
C            4.48508476037449       -0.39689842210574       -0.85465798381736
C            5.19923990800953        0.77929580202091       -0.97603157979904
C            6.51318186523071        0.87426064000038       -0.54314379781743
C            7.14334226629245       -0.21741690684538        0.02013341635067
O            8.43673665523741       -0.25621693816904        0.45134142787626
C            9.21417114814182        0.89956986089206        0.28185771265197
C            6.42988655680867       -1.42076784756804        0.17215428009314
O            7.13177070931288       -2.44173101132947        0.75138432059882
C            6.46759818888118       -3.66499575827561        0.88764864029976
C            5.12621911059111       -1.49133160247522       -0.28289804328147
C            0.16011187608892       -1.30310491620727       -0.54233390700526
C           -3.87812023177674        3.13533797469021        0.12519027097786
C           -4.71077143304854        3.33622307964355        1.33348143873830
C           -3.18564596767006        4.48443733115146        0.11130856004354
H           -5.07667017105700        0.79562056566883       -1.22917265867881
H           -7.12193853631153        0.14905483377752       -1.64339860446518
H           -7.55404831172445       -1.30243742512129       -2.55886982037070
H           -5.98682714654244       -0.46849705404936       -2.85997519874093
H           -5.00507380665181       -3.72709305023457        2.54440073404617
H           -5.52989129956097       -5.02116765335518        1.45513265701012
H           -3.83205449763900       -4.45003035110842        1.43058918586271
H           -3.23212070249174       -2.35649387134854        2.09450305337255
H           -2.24561648702565       -0.18834706490653        1.79958303118662
H           -2.44629200940232        2.79855556850219       -1.24048122402486
H           -1.22626071140132        2.68581109725121        0.00827233808937
H           -1.59000353235582        0.28561656273023       -1.07914802055742
H           -1.08485704307897        1.57476808978123       -2.33943852795532
H           -1.22394794842894        1.65986894361455        1.51410856029621
H            0.90668901340377        2.01634323384807       -0.71075888547025
H            2.34244590897781       -0.74989008550402        0.77713797707599
H            2.43777054955513        0.94260124604589        0.24194865384894
H            2.81233446822248        0.18200245296968       -2.06339625296704
H            2.78864546995334       -1.50316960267549       -1.55320775731347
H            4.73522714750154        1.64593092824287       -1.40477138570724
H            7.04057055529996        1.80882353955560       -0.65299399824707
H            8.77066233946793        1.72721174526601        0.84215980118308
H            9.28595128005573        1.19494707303143       -0.77207165784347
H           10.20304945494399        0.65421102946664        0.66958908038810
H            7.15773937615420       -4.35970571357958        1.36212147168015
H            5.55831710492650       -3.56668530422127        1.48741522195532
H            6.12358677246351       -4.05040253093361       -0.09085900446361
H            4.56729348264041       -2.40080672968424       -0.20087716035327
H            0.03413338962271       -1.55576343953673       -1.60250084297825
H           -0.81688848588746       -1.27016565314658       -0.07777046988761
H            0.76252357153335       -2.06704206647175       -0.04906728156145
H           -4.39773285942213        2.94542487815757       -0.82257833925623
H           -3.95294523828302        3.52153777504912        2.06333230245271
H           -5.25841333608646        2.47471800275779        1.55621543384702
H           -5.39375765887110        4.13417203373654        1.28529491160062
H           -2.43931866547515        4.67728030145708        0.86178892490076
H           -2.69608054920892        4.55759170109797       -0.83203767990820
H           -3.97956568815951        5.20925569041914        0.29463658750204
H           -1.85538550353005        2.74377533307063        3.25865076486052
