72
 energy: 3.901517488896 xtb: 6.6.1 (8d0f1dd)
N           -4.03231451474875        2.04251166939426        1.74927261120338
C           -2.82984505001440        2.11333126109087        1.27525000990414
C           -2.43915774657498        3.14700594163592        0.41592826943000
C           -4.04671097017321       -0.58801522388397       -0.32565802671775
C           -5.26455890781584       -0.97822620483396       -0.86705086669638
C           -5.93429680313550       -2.07760726655556       -0.36018517740254
O           -7.12407286987252       -2.55610715256338       -0.81585065649041
C           -7.75104435610355       -1.90476402584295       -1.89108273457886
C           -5.37287956631953       -2.79844447413924        0.72040350873139
O           -6.10804803643995       -3.86058546969744        1.15107828839216
C           -5.63224981301366       -4.62398700549798        2.22934451578348
C           -4.15966430499058       -2.39614587940421        1.24909979932531
C           -3.49786802282727       -1.29392986139935        0.72251059449567
C           -1.06275435442295        3.13688259827423       -0.16174785913507
C           -0.53880535813849        1.75108727720243       -0.38672163795661
C            0.63398643796252        1.32414179861266        0.08947577836877
N            1.15836709507661        0.06355361301115       -0.01377163529418
C            2.56046583879821       -0.14744700663743        0.22144734878450
C            3.40272986508031       -0.07675768534852       -1.06941879409206
C            4.86862352728808       -0.12698048855189       -0.75849222075171
C            5.63119481238016        1.02519384567459       -0.74514580874541
C            6.98795383568724        0.97931661153588       -0.45403513841183
C            7.59911915325830       -0.22568363202929       -0.16018699787542
O            8.91749221901095       -0.39463906166500        0.12942878584629
C            9.76724977263698        0.72373032168491        0.10211613776900
C            6.82434846900788       -1.41030811207723       -0.15360220498307
O            7.50996856787510       -2.54508754652463        0.15158135112157
C            6.82603276994763       -3.77172228143980        0.16483698498116
C            5.47652426675768       -1.34459841313985       -0.45267127734935
C            0.45306289642861       -0.95711586458843       -0.74352534977220
C           -3.39892872595288        4.26957788295255        0.17464859893932
C           -3.49552271833190        5.12592123629433        1.45011343441449
C           -3.07420973806872        5.15772047724277       -1.02282290082949
H           -5.68156459635747       -0.41144197387340       -1.68469990111876
H           -8.00536245177952       -0.86860947131851       -1.64483672030716
H           -8.66641570034592       -2.46621685560577       -2.07402640636248
H           -7.13045051927974       -1.92288315911415       -2.79349647247653
H           -5.54513390854484       -4.02581777862993        3.14265871411805
H           -6.37682915492449       -5.40423139617349        2.38134287260028
H           -4.66544921274971       -5.08781164054186        2.00502015431892
H           -3.71629835031568       -2.93260680619168        2.07389600146895
H           -2.55262500970158       -0.99693591987745        1.15225925573843
H           -1.06886374668065        3.67098326636897       -1.11611732435929
H           -0.38208931279182        3.68490705065882        0.50221619276802
H           -3.54544417150058        0.27716499788838       -0.73067393934315
H           -1.17209254797489        1.11061125855895       -0.98038110837747
H           -2.04848089790148        1.37897437247732        1.51276249885347
H            1.25657471298128        2.00144409277115        0.66170977278888
H            2.69491331065028       -1.12889685246268        0.68962345310010
H            2.91983039047746        0.61081945855074        0.92181181804716
H            3.16532364439506        0.85550664561826       -1.58520123597446
H            3.12806594900264       -0.90985513040289       -1.71924323908037
H            5.17589032251123        1.97674576895525       -0.97618032415072
H            7.55725515401870        1.89549408522197       -0.46569002196136
H            9.47866684721882        1.47153254270816        0.84824888829583
H            9.79219945100025        1.18959474625104       -0.88870037662719
H           10.75720210408763        0.33926931286947        0.34342775853069
H            7.57677203229810       -4.51886686558886        0.41866145658382
H            6.03362846923484       -3.78586015605659        0.92100535185629
H            6.39896421512361       -4.00861131188546       -0.81543646115481
H            4.87806494228664       -2.24302825956849       -0.46555868366903
H            0.48125865142411       -0.79748079066640       -1.82796352584706
H           -0.59054728261107       -0.97993122545614       -0.42800564338612
H            0.90114152488319       -1.92435901539626       -0.51971924544011
H           -4.38555584477003        3.81375807408764        0.03259906436565
H           -2.52796380505635        5.56032971801022        1.69334562254623
H           -3.82864917128985        4.51002880327112        2.28016134722159
H           -4.21157883389354        5.92981462634020        1.30097351950546
H           -2.14921902150587        5.70888648246883       -0.86531368062691
H           -2.98971766294669        4.57310893401275       -1.93673886435983
H           -3.87327308056767        5.88243873458866       -1.16189034208957
H           -4.20443591571741        1.26950059506855        2.38606937165809
