72
 energy: 72.737013690699 xtb: 6.6.1 (8d0f1dd)
N           -4.32890975389368        2.17311353403883        2.40336356379419
C           -3.16782262215406        2.11385425068869        1.81476271764605
C           -2.80554881976380        2.59783660020190        0.52953006569278
C           -3.75384145499856       -0.20217948088469       -0.20222758248122
C           -5.00569172407125       -0.46088187893801       -0.72349276998909
C           -5.66706112782182       -1.58259184417036       -0.29879274992086
O           -6.81640580854950       -2.03277576885808       -0.82839168980818
C           -7.43115422606690       -1.27057111823494       -1.82500950843688
C           -5.14106813049645       -2.39730154829904        0.70548041304823
O           -5.87427619450258       -3.48442091198299        0.98203696612870
C           -5.41394906029892       -4.31359415188268        1.99341627897109
C           -3.95954154243768       -2.07088095946131        1.30137638098232
C           -3.29555479957522       -0.94538321199125        0.85905990472224
C           -1.39745405123619        2.40122401169291        0.24823866145854
C           -0.77565979083105        1.39604462854040       -0.61773959823456
C            0.51693671133950        1.18527801339139       -0.26903079067159
N            1.06971478185585       -0.01827588229955       -0.08300572403261
C            2.46122244096263       -0.06806501341740        0.16530479800562
C            3.24990004319320       -0.22822905133160       -1.14016373074780
C            4.70971683114977       -0.22962079527050       -0.82988123564116
C            5.41456813904580        0.95294484956938       -0.75890403256878
C            6.76414765098992        0.96561671104119       -0.44449042328484
C            7.41198068278659       -0.21711978029660       -0.16322568842090
O            8.72488553901471       -0.34216829289016        0.15073405957931
C            9.53335368542941        0.80236828770058        0.12932175225654
C            6.70517022056904       -1.43200822143904       -0.20206661902080
O            7.44572596321397       -2.53712947003531        0.09486831037787
C            6.78818874920541       -3.77490678366192        0.09137265836528
C            5.37178973460393       -1.41996853749075       -0.54952468218202
C            0.42806292371296       -1.19480288064807       -0.57416742407599
C           -3.63508558431103        3.60898031915218       -0.11459105273806
C           -4.38489518245846        4.42670913393684        0.90417433476082
C           -2.75972789217954        4.53381082651150       -0.89063333975217
H           -5.46769384105418        0.16559793902348       -1.46515933597724
H           -7.74696357237498       -0.27950459168824       -1.49933924617241
H           -8.31882099707004       -1.83566098349594       -2.01704707844913
H           -6.83111499453445       -1.17233796355769       -2.73749793467076
H           -5.38863224079394       -3.79209624894016        2.94952769069205
H           -6.15994791489999       -5.09935620132733        1.99585040013879
H           -4.41655970717729       -4.71875540067225        1.78337809913796
H           -3.53946471079014       -2.69534293412810        2.06734963566741
H           -2.37919762880396       -0.67024164719379        1.36247345777165
H           -1.09148457500298        3.36511666152284        0.00270005598518
H           -0.88782015560735        2.19768872009983        1.17802670757991
H           -3.02849302992259        0.52897285841416       -0.58034850925972
H           -1.13591538130285        1.29250337785421       -1.61008319502285
H           -2.27912862003504        1.95687517883273        2.44281582522015
H            1.05965700927899        1.99723534604602        0.21348184875351
H            2.68265765889666       -0.90760155085707        0.82745205131653
H            2.75709810138861        0.85184012714450        0.68449507445929
H            2.99388141483609        0.59174326044514       -1.81001854694696
H            2.95445392194335       -1.15439623857840       -1.62088053935862
H            4.92115676178100        1.88642127649214       -0.95950062287191
H            7.30483089424487        1.89834862625316       -0.42373941042770
H            9.20128304637085        1.51753442650539        0.88422089939082
H            9.57537062697766        1.28411822637122       -0.85390291790908
H           10.53499245539246        0.44666751648457        0.36069383936493
H            7.54570710562531       -4.52049781220397        0.32167768475223
H            5.99471365657277       -3.81012405392466        0.84355797922649
H            6.33344469545841       -3.99469885996135       -0.88504348090648
H            4.82881255760627       -2.34122249388721       -0.62394175109746
H            0.42827122527193       -1.21461553692917       -1.66169435293797
H           -0.60592847946410       -1.18312230105902       -0.23338488702203
H            0.94421673640548       -2.07921063897548       -0.21511062249169
H           -4.44367269681263        3.24962966684570       -0.74815159517623
H           -3.67274374771213        4.93654514434847        1.51456269862375
H           -4.95140966878770        3.81468516432158        1.58902445030743
H           -5.01523158021118        5.09325211084800        0.32781232312987
H           -2.08827997669199        5.07464657714060       -0.23318011948937
H           -2.20639782864171        4.11393413874249       -1.72214435194891
H           -3.45533991415474        5.27130424978702       -1.21446887578970
H           -4.29677663091033        2.15772817171453        3.42534419671814
