72
 energy: 84.958655796416 xtb: 6.6.1 (8d0f1dd)
N           -4.30972339286985        2.22884970174572        2.44889881521554
C           -3.17092408451528        2.14608953823045        1.85848037482337
C           -2.83245751375101        2.52945318174104        0.53099179630444
C           -3.70933429877919       -0.12673857002035       -0.17837813695288
C           -4.96718268442688       -0.37782506214478       -0.69612147692204
C           -5.62779943435409       -1.50499557862425       -0.28542524986798
O           -6.77201248402503       -1.95440085442190       -0.82580855332946
C           -7.39030313407782       -1.18533582277237       -1.81388262598443
C           -5.10514991582388       -2.33530608069937        0.70602473279178
O           -5.83547303680818       -3.42867795640640        0.95534613692109
C           -5.37908002822377       -4.27760023101000        1.94981200204591
C           -3.92865247475168       -2.01560986412749        1.31176011863886
C           -3.26794514949827       -0.88329406975259        0.88419874834391
C           -1.42482953897461        2.28727245560912        0.27506844108028
C           -0.81837337476939        1.34513273715200       -0.67215379850413
C            0.50537708136304        1.17547005335525       -0.34417072981436
N            1.05039043245832       -0.01639424384010       -0.10954372016123
C            2.43882009673222       -0.06477384865535        0.14643881548358
C            3.22899601438232       -0.25754596836024       -1.15247124215903
C            4.68684352768465       -0.24843875178157       -0.83467946115823
C            5.38963475968221        0.93564383776143       -0.77934701438291
C            6.73582209272918        0.95829989773479       -0.45215121081967
C            7.38444445153688       -0.21686837609101       -0.14463706289525
O            8.69494287986424       -0.33379945894549        0.18102575968521
C            9.49872859045069        0.81377444735990        0.14481605410623
C            6.68011963077983       -1.43279848120199       -0.16690556897287
O            7.41989162369430       -2.53026332481445        0.15733834201303
C            6.76087582111436       -3.76632628662501        0.16417414380573
C            5.35026113361406       -1.43039365013680       -0.52816524173457
C            0.41812269295250       -1.21730229604325       -0.54381402272076
C           -3.65313468469545        3.52566207192544       -0.14892519595834
C           -4.49455699073255        4.32297321468659        0.81021079966071
C           -2.74734744211375        4.49583702434280       -0.83055027243550
H           -5.43767147998538        0.25102719228139       -1.42991987876108
H           -7.71547727760782       -0.20293948258784       -1.47561827925668
H           -8.26981360311127       -1.75837058438955       -2.01897295150698
H           -6.78993254967481       -1.06910664278203       -2.72332581308480
H           -5.35948411272105       -3.77873099851540        2.91506129315555
H           -6.12441298549588       -5.06378798289055        1.92924390889157
H           -4.37798694174504       -4.67709782121416        1.74430571106705
H           -3.50946284364238       -2.65312513613239        2.06735442935395
H           -2.35478414386880       -0.61644798995744        1.39805221232246
H           -1.09041833333984        3.26236421174489        0.08042491898477
H           -0.94430449263284        1.98037154270774        1.19804446828200
H           -2.92126652282062        0.55209634771059       -0.56808828349396
H           -1.12306211816375        1.38301266176081       -1.69151671679597
H           -2.27711632187195        2.02671950616997        2.48645080401397
H            1.04561917753818        2.00429093299410        0.12256099373241
H            2.65819441601316       -0.88809367189171        0.82784703571054
H            2.73121739257089        0.86762395585178        0.64111767353334
H            2.97173934904231        0.54608061894016       -1.83948285969168
H            2.93568012808289       -1.19464216222321       -1.61251112965303
H            4.89723946379532        1.86376599998377       -0.99960148072554
H            7.27330164406170        1.89277863374524       -0.44132039021141
H            9.15178420545162        1.53965585467307        0.88162104649938
H            9.54333237363240        1.27855400327255       -0.84632785652206
H           10.50031224432883        0.46917499929622        0.39252444437358
H            7.51053207999889       -4.51088037715994        0.41918902778790
H            5.95252841537748       -3.78702591743193        0.89987532899012
H            6.31513685260659       -3.99903903703052       -0.81490243831504
H            4.80911162813077       -2.35211091707672       -0.59178975963180
H            0.41520954580123       -1.27093246416019       -1.62877022671417
H           -0.61279221584252       -1.20324915855944       -0.19727363645122
H            0.94857152986276       -2.08376346562772       -0.16404021792871
H           -4.40571601141612        3.16573818835801       -0.84832481576981
H           -3.83873972434768        4.85882719686474        1.45887776149548
H           -5.07900939264818        3.70853138131160        1.47272419316829
H           -5.10646232862478        4.96424436979849        0.18383205820135
H           -2.09691353049836        4.99342617480032       -0.12635455153651
H           -2.14084812159693        4.09505646735675       -1.64239950942965
H           -3.44850211705602        5.25499274336644       -1.11165857742282
H           -4.21511961242668        2.23466944191636        3.45925344806264
