72
 energy: 60.882694926158 xtb: 6.6.1 (8d0f1dd)
N           -4.30527080754447        2.13499513425913        2.36498995220017
C           -3.13672441559758        2.08967005924588        1.75434868636748
C           -2.76798668315719        2.67691617254534        0.52415875334329
C           -3.79766661542593       -0.28055514737407       -0.22846697277958
C           -5.04388474241098       -0.54623464195659       -0.75175195201977
C           -5.70693151525695       -1.66095552216928       -0.31092630919152
O           -6.86186691583735       -2.11130373593468       -0.82909890140535
C           -7.47338155243207       -1.35864241148644       -1.83582927058457
C           -5.17710416164568       -2.45994292568661        0.70579103042061
O           -5.91222557787341       -3.54138605728528        1.00844350100739
C           -5.44674612725048       -4.35338531245041        2.03373691934910
C           -3.99079567907868       -2.12635413402960        1.29249548247991
C           -3.32326613015995       -1.00868411495215        0.83425509136110
C           -1.36511153133215        2.52702318580385        0.19476034042842
C           -0.74183938278141        1.43943040455032       -0.56212667213395
C            0.52348278723211        1.19367897311505       -0.18995733598338
N            1.08610107260857       -0.01872690798491       -0.05835230863781
C            2.48079234818298       -0.07150849453571        0.18168379287702
C            3.27020787863200       -0.20043315987491       -1.12844090450776
C            4.73200671310952       -0.21139643333298       -0.82484663130819
C            5.44007241026691        0.96907877371971       -0.74159349014280
C            6.79263333845483        0.97190370043215       -0.43840654414215
C            7.43891058598221       -0.21748997879962       -0.17964789419625
O            8.75410144064510       -0.35004084101259        0.12391828660379
C            9.56710493633037        0.79152727457838        0.11557753522666
C            6.72833615804017       -1.43070354189039       -0.23223988275515
O            7.46809663347509       -2.54284279492263        0.04130819364801
C            6.81151203192352       -3.78194773366308        0.02934209125514
C            5.39163241317334       -1.40935859131063       -0.56679608415794
C            0.43610105196193       -1.16952317525140       -0.60228047618589
C           -3.61236600475633        3.70136358925232       -0.07749861484653
C           -4.27197937382069        4.52913241832479        0.99555371441037
C           -2.78539274609186        4.59899484296202       -0.93671110590311
H           -5.49759786993171        0.07838171926103       -1.50039542226811
H           -7.78266052017423       -0.35999230728813       -1.52235669015825
H           -8.36132112645051       -1.92771215290994       -2.02096775720572
H           -6.87174291111241       -1.27380500854347       -2.74894700120140
H           -5.41061901928378       -3.81155121804991        2.98157748510907
H           -6.19432434135979       -5.13781799053200        2.05885453363483
H           -4.45346788512630       -4.76720261038314        1.81898922957293
H           -3.56970640348481       -2.73739957126206        2.06863147664712
H           -2.40363769915408       -0.72541974054018        1.32655610291628
H           -1.12056148162733        3.45114334937513       -0.20705602023567
H           -0.81987464895280        2.45278179200166        1.12155504196579
H           -3.13138314444865        0.49347586760673       -0.59587456812062
H           -1.14785655812182        1.21028908027905       -1.51554663335451
H           -2.24824324188880        1.82007184768037        2.34011120964902
H            1.07468139739072        1.98967678935388        0.30132451297756
H            2.70183394083021       -0.92731976821156        0.82485685078702
H            2.77976130238196        0.83554401577231        0.72349959564385
H            3.01578319411968        0.63519056472105       -1.78113850985072
H            2.97398994743061       -1.11594698054666       -1.62962491564757
H            4.94659847613683        1.90733104417236       -0.92583059415695
H            7.33677735568858        1.90270225802586       -0.40945410808657
H            9.24879780085149        1.49734271384154        0.88624878748788
H            9.60575817129256        1.28810570039615       -0.86056125862855
H           10.56873107079779        0.42633025688146        0.33216200308347
H            7.57556738619857       -4.52794080812396        0.23881563160984
H            6.03112252671876       -3.82972446938919        0.79542329885419
H            6.34984275757116       -3.99113593769647       -0.94474168427414
H            4.84519547265670       -2.32951506251823       -0.64881242113906
H            0.44002673239101       -1.15688225560089       -1.69132139554158
H           -0.60060106565905       -1.16044610716436       -0.26700697053823
H            0.93917986625947       -2.07058915290634       -0.26483418701047
H           -4.46648935610220        3.33566356919330       -0.64335537059465
H           -3.50883473813143        5.01642270927153        1.56332444121748
H           -4.81664855571709        3.91710711191085        1.70094087629447
H           -4.91760486171236        5.22040912640644        0.46972000845085
H           -2.08722284433303        5.16803198414040       -0.33045330452601
H           -2.28432367901237        4.15509557881770       -1.78719583866798
H           -3.48472960230702        5.30269284644351       -1.29228951950732
H           -4.31659414089394        2.07917844316740        3.39261868108549
