72
 energy: 47.469798638814 xtb: 6.6.1 (8d0f1dd)
N           -4.26052782338538        2.05185697972898        2.23267416070618
C           -3.07369475304355        2.05947393190856        1.65388446187217
C           -2.70750836011298        2.76464689920513        0.50057064707100
C           -3.84265765815259       -0.35995976080871       -0.25496076944404
C           -5.08376926508761       -0.63297794586059       -0.77882585415644
C           -5.74872079424450       -1.73959500297574       -0.32109652665383
O           -6.90922472622579       -2.18985226779412       -0.82875003387583
C           -7.51670024222880       -1.44656184833357       -1.84581117084770
C           -5.21385334957594       -2.52242392318824        0.70751335125343
O           -5.94979041348857       -3.59914121809169        1.03450427494939
C           -5.47846200820499       -4.39680192290591        2.07056630178438
C           -4.02351066871551       -2.18053819716503        1.28650575237457
C           -3.35273972574145       -1.07084233617580        0.81199616606942
C           -1.31386270213997        2.65843917544331        0.12509341183938
C           -0.70453483437779        1.49726471327280       -0.51640051070585
C            0.52925999437932        1.20208870524178       -0.11187613157066
N            1.09768616097326       -0.01931715254487       -0.03626559799478
C            2.49600026503461       -0.07860936598347        0.19411546179270
C            3.28918459988762       -0.17491370758057       -1.11792088835457
C            4.75300019058404       -0.19417737117854       -0.81905960852051
C            5.46562115666839        0.98360846633078       -0.72767049464932
C            6.82080247392933        0.97680087733666       -0.43412465018945
C            7.46483862048355       -0.21830258041781       -0.19344248399336
O            8.78206989868423       -0.35778530684142        0.10113223722542
C            9.59950538699623        0.78098791261997        0.10376522381523
C            6.74903599321481       -1.42920767997518       -0.25623026110923
O            7.48638878971107       -2.54760379382069       -0.00136720859534
C            6.83007321066222       -3.78749885182285       -0.01971989962884
C            5.40919554106405       -1.39897289286469       -0.57899733229024
C            0.44027275924930       -1.14222491673863       -0.62916146703092
C           -3.58387518170721        3.79619538277620       -0.04014526145097
C           -4.15394336544755        4.62563685249867        1.08402082875069
C           -2.82411112367836        4.68155927083419       -0.97339950550457
H           -5.52736910059254       -0.00995051623691       -1.53514267458216
H           -7.81807453408421       -0.44063792249504       -1.54372359001709
H           -8.40627800052573       -2.01732864603547       -2.02616389372658
H           -6.91249432228198       -1.37534688804603       -2.75870326267342
H           -5.43110651334904       -3.84145244303763        3.01199924335587
H           -6.22670802122017       -5.18015705396229        2.11790261695133
H           -4.48877215396347       -4.81719658234904        1.85157410793455
H           -3.60003724218440       -2.77923151294451        2.07123564654095
H           -2.42856030705028       -0.78132536648263        1.29181027300142
H           -1.12313292474998        3.52756259640516       -0.40524223801895
H           -0.74642110565454        2.70092543802812        1.04188040337219
H           -3.23146916144810        0.43853972786863       -0.64207932060294
H           -1.16630977058021        1.14979295639415       -1.40771850588633
H           -2.19745953280414        1.69908750523297        2.20996369332537
H            1.09227791662828        1.98265443012688        0.38466482919927
H            2.71283440245070       -0.95385498308511        0.81426805263552
H            2.79743635571649        0.81159477239149        0.75932889938027
H            3.03677053885801        0.67619139315666       -1.75255103025168
H            2.99426654716908       -1.08004110616744       -1.63951633184453
H            4.97325237584361        1.92611071122711       -0.89955914783888
H            7.36873839034885        1.90548791999217       -0.39931820202600
H            9.29344923975656        1.47910693564791        0.88761845844903
H            9.63393256648390        1.28993294514977       -0.86636562099603
H           10.60110745607209        0.40801279352644        0.30752348286769
H            7.59906667725553       -4.53351833595647        0.17376218275999
H            6.06022174360182       -3.84518716101685        0.75713129222169
H            6.36372380700736       -3.98850064441057       -0.99206139412029
H            4.85764266178460       -2.31739014771409       -0.66536853584344
H            0.44984752860408       -1.09809761376788       -1.71862664450864
H           -0.59831321507998       -1.13571159732226       -0.29878654604436
H            0.93210224254235       -2.05790817796724       -0.31325874027424
H           -4.47813682472357        3.41972722426281       -0.53365827987260
H           -3.34652902233261        5.09637384217259        1.60542320654057
H           -4.67527007763986        4.01400381364234        1.80837087149725
H           -4.81401931367554        5.34005147536930        0.60981032460577
H           -2.09115911400806        5.26372289628776       -0.42173909163066
H           -2.37771425093458        4.21496458888368       -1.84255065515760
H           -3.54656168106063        5.36057627499525       -1.32520388334095
H           -4.30967389524511        1.88464275756037        3.25130681708816
