72
 energy: 41.745441804560 xtb: 6.6.1 (8d0f1dd)
N           -2.25872136041924        2.78067455362835        2.48254260339862
C           -2.04352904041702        2.06291284958955        1.50156486978114
C           -2.98132192157755        1.91654805073800        0.38041871325117
C           -3.60431705001107        0.54436958856701        0.35697290391635
C           -4.62154805749252        0.16479568139978       -0.49061937726482
C           -5.12438683755721       -1.10895094689207       -0.39700255179290
O           -6.11142656183625       -1.60242234226090       -1.19853056526578
C           -6.63305191633408       -0.73379029357284       -2.15649796795506
C           -4.63739455458767       -2.02120865040215        0.54556838716319
O           -5.24130911953542       -3.23646599611608        0.52764468500220
C           -4.82893144035317       -4.14403399022535        1.50808595936268
C           -3.60565148366468       -1.64973751641490        1.36872022667289
C           -3.07681523139425       -0.38466931426451        1.23696592933073
C           -2.01179927180714        2.19811545972947       -0.73607989096805
C           -1.12558147744840        1.19649616163895       -1.41820609470040
C            0.22080652675693        1.14594118608182       -0.83965873021033
N            0.75311815786405       -0.04202007046612       -0.40612302082468
C            2.12973544797585       -0.06161000736529       -0.08805074648377
C            3.02698967878119       -0.51029546069434       -1.25884587701112
C            4.45909764656456       -0.40989500212453       -0.85287672677797
C            5.17527317843053        0.76320335483383       -0.99582414686289
C            6.48685167867656        0.86421300374276       -0.55556800875675
C            7.11275389560987       -0.21671356461799        0.03474865502626
O            8.40309844283076       -0.24618529479647        0.47662905651973
C            9.18143607809019        0.90768324470778        0.29468295892845
C            6.39633333650181       -1.41720116595304        0.20618588212652
O            7.09246297613113       -2.42823412047298        0.80957844574411
C            6.43131579394588       -3.65190661831191        0.96450327080317
C            5.09382086212244       -1.49407564092927       -0.25306745661259
C            0.10629741420689       -1.30389339001750       -0.56256676787871
C           -3.89523084567815        3.12466997584506        0.24713619914572
C           -4.67243742162017        3.21069941777956        1.50905694442382
C           -3.25143200028659        4.49446005311215        0.23232413112198
H           -4.96551570672407        0.83132142176526       -1.25421801324392
H           -7.03623392728447        0.17742182037672       -1.68340029817260
H           -7.45756967579064       -1.26143461249601       -2.63269255875286
H           -5.88721094503796       -0.41179962946599       -2.89725665536667
H           -4.96631625092713       -3.72160127854531        2.50309430715008
H           -5.45852434701693       -5.01488470290722        1.40047533912850
H           -3.76794826280509       -4.43111449210133        1.40321616665262
H           -3.18653124320492       -2.32277633113576        2.09545021095648
H           -2.22512323238132       -0.12785789287798        1.84771122590446
H           -2.65319977182250        2.69781606711304       -1.40262283575387
H           -1.32249435213335        2.83596496894220       -0.27544001008849
H           -1.58054932535330        0.25870246407858       -1.18511107941942
H           -1.07926560388619        1.52304673048989       -2.45475379632716
H           -1.07111768643020        1.64314149960587        1.31542409591821
H            0.85312631877762        2.01437348294333       -0.79775417331703
H            2.28949042036907       -0.73163332300216        0.76372949348465
H            2.39844316633746        0.95020638451161        0.19992251978501
H            2.79961269970670        0.14724706452073       -2.08847898358458
H            2.76853898638384       -1.52896001097610       -1.54571901350494
H            4.71528704870876        1.62147656988361       -1.44800055703836
H            7.01507890443441        1.79641620990173       -0.68201038408200
H            8.73511083127145        1.74699224143940        0.83636969983402
H            9.26109445168044        1.18314351204508       -0.76405962377321
H           10.16671683142636        0.66991334897750        0.69659843907360
H            7.12233266908179       -4.33451125655044        1.45615174735706
H            5.51944635238914       -3.54580871883019        1.55951783207379
H            6.09896742541284       -4.05774908176321       -0.00895049436136
H            4.53235969497713       -2.40152628192445       -0.15227530982562
H           -0.03869522052918       -1.57942469531735       -1.61551113950414
H           -0.86448632133303       -1.26324452314772       -0.08194112038206
H            0.70490606602176       -2.06597790435676       -0.06455005143825
H           -4.47814730512156        2.95637250910031       -0.66581385424136
H           -3.88968517322405        3.33734405643464        2.22419144111341
H           -5.18996945451498        2.31153017343448        1.66113398201729
H           -5.37849641162316        3.99799779068314        1.55716235067099
H           -2.48853887674485        4.67232792033306        0.97193910439859
H           -2.79906818729998        4.60994614752600       -0.72682713955223
H           -4.05327104777032        5.20207723891050        0.44974420165320
H           -1.53422630671134        2.77000427326796        3.15052252464964
