72
 energy: 35.298471095768 xtb: 6.6.1 (8d0f1dd)
N           -4.20292261289537        2.01811530657669        2.08710152604467
C           -3.00018564494552        2.05793279696912        1.54647969970601
C           -2.63173231015519        2.87279800578778        0.48551418490379
C           -3.89904824562514       -0.43847296724000       -0.27725559700901
C           -5.13178802496407       -0.71991625252666       -0.80391029400673
C           -5.79558061465578       -1.81884953362434       -0.32895627109228
O           -6.95985770309668       -2.27002739899544       -0.82785327253532
C           -7.56158317205906       -1.53457921094278       -1.85525630903065
C           -5.25200811150992       -2.58485103829999        0.71015790298976
O           -5.98728467100133       -3.65801368792972        1.05972542915295
C           -5.50989631327376       -4.44225488607059        2.10528996291227
C           -4.05703510753785       -2.23467699166347        1.28062600496044
C           -3.38418718955652       -1.13265498289757        0.78840190553099
C           -1.25193149859352        2.78494396556169        0.05987157454095
C           -0.65562021144133        1.57074340869152       -0.48160675078162
C            0.54384120131464        1.21586867342626       -0.04107874702088
N            1.10912815906229       -0.01511776132991       -0.01599734183585
C            2.51048556902919       -0.08920232397847        0.20404891936609
C            3.30748888004321       -0.15214840449229       -1.10885907054141
C            4.77336156195754       -0.17822592563556       -0.81315235865513
C            5.49165353705086        0.99634802876594       -0.71789155391022
C            6.84901101374855        0.98025098694545       -0.43171029509394
C            7.48989794918159       -0.21981118270951       -0.20375545165444
O            8.80821758872427       -0.36683025300422        0.08512895333026
C            9.63057959983655        0.76878572057716        0.09489323595408
C            6.76724913419584       -1.42777491754852       -0.27312459842402
O            7.50034730214094       -2.55151351834374       -0.03136226145225
C            6.84328122336214       -3.79144004032066       -0.05406370598108
C            5.42465461553793       -1.38916902423175       -0.58586810615178
C            0.44330481405933       -1.11073566717861       -0.65402061671224
C           -3.55110558383758        3.89578027068340       -0.00219646985100
C           -4.03386758043016        4.72358736862412        1.16572022740018
C           -2.87075072250222        4.77605841210529       -1.00173283193194
H           -5.55945422260864       -0.09850668324363       -1.56995383151418
H           -7.85324115041155       -0.52157639753266       -1.56352100072718
H           -8.45404430838743       -2.10446522274980       -2.03373992542505
H           -6.95316890192206       -1.47693679951540       -2.76661521968496
H           -5.45266497855361       -3.87475511635001        3.04007503116177
H           -6.25757544909209       -5.22516445894834        2.17467437384321
H           -4.52328713485906       -4.86798694649746        1.88278559997462
H           -3.63082734407112       -2.82075047678945        2.07400052118766
H           -2.45563813605001       -0.83589172391883        1.25546834125922
H           -1.11340314743858        3.58647836876301       -0.58789567817515
H           -0.66338611161666        2.93710380385100        0.95175352432186
H           -3.33691385192252        0.37080484777184       -0.71010350079957
H           -1.17378106840281        1.12492862975442       -1.29841659841464
H           -2.14526089345816        1.59760528054994        2.06302044476657
H            1.11950309968208        1.97712130756960        0.46430413935802
H            2.72007816972329       -0.98740359793781        0.79532253269733
H            2.81835560527289        0.77807393479984        0.79471923100524
H            3.05699033573865        0.71394351731446       -1.72462560916365
H            3.01586569479832       -1.04740013177316       -1.65056308889263
H            5.00142163509042        1.94255685675792       -0.88173729954503
H            7.40084284549216        1.90676372992903       -0.39347707832006
H            9.33470192342932        1.46365086886433        0.88693666400768
H            9.65965366935389        1.27910355408070       -0.87344296236390
H           10.63247667395715        0.39127858014567        0.28875857272706
H            7.61527270123820       -4.53743545422529        0.12915822039199
H            6.08071437946347       -3.85587804497269        0.72998677197565
H            6.37488205349432       -3.98676301429971       -1.02553280160634
H            4.86603329862862       -2.30504501826646       -0.67281846584137
H            0.45904805617748       -1.03720847878137       -1.74289993456741
H           -0.59696240077147       -1.10834613661943       -0.32903925117702
H            0.92454559799260       -2.04034898449116       -0.36025029295091
H           -4.47583528120695        3.50095943891666       -0.42185511531721
H           -3.18755543111171        5.17970392103149        1.64037251070632
H           -4.52718572493195        4.10895165748307        1.90820600405620
H           -4.70811664397506        5.45873102431582        0.74659292293670
H           -2.09658515818518        5.35854159326506       -0.50842332271780
H           -2.48348847925727        4.28678936766797       -1.88859138355330
H           -3.62076675613624        5.44942786251694       -1.32050546307767
H           -4.28729925576288        1.71227506802906        3.07238733719490
