72
 energy: 25.537846105623 xtb: 6.6.1 (8d0f1dd)
N           -4.14119592562928        2.00762919115705        1.94477106585390
C           -2.92566784704269        2.09160089126970        1.44982271898993
C           -2.55630141953339        2.98394325682625        0.47051156434691
C           -3.95748201135955       -0.50547583755756       -0.29359284992544
C           -5.17893934569269       -0.80366407082303       -0.82809442453077
C           -5.84039776115810       -1.89737121538026       -0.33789774061019
O           -7.00988502703868       -2.34893004145219       -0.82690322442470
C           -7.60687587264233       -1.62200892422478       -1.86431715372794
C           -5.28971071110074       -2.64759032301845        0.71168361970610
O           -6.02449532988926       -3.71679593773131        1.08392482457991
C           -5.54109866214296       -4.48844709544233        2.13848509398289
C           -4.08935425018113       -2.29031812258385        1.27264377414468
C           -3.41914001045320       -1.19210584044241        0.76626153636403
C           -1.18846385119673        2.90474380778346       -0.00161433084238
C           -0.60752977440111        1.64427386968724       -0.44728774517032
C            0.56577833382674        1.24203771336966        0.01622136318307
N            1.12311470416133        0.00582789299356       -0.02118414321829
C            2.52290347043734       -0.09907393563730        0.20833266205361
C            3.32749296460167       -0.13289454051056       -1.10180506769254
C            4.79397553743276       -0.16381532491738       -0.80645763850573
C            5.51891741738031        1.00721864884054       -0.71377058638972
C            6.87768409431638        0.98236797942764       -0.43180590517212
C            7.51484019006072       -0.22172410175446       -0.21116395267770
O            8.83408525489510       -0.37560290788238        0.07398257739816
C            9.66075514936196        0.75738853922421        0.08864301044472
C            6.78365879259192       -1.42592024439880       -0.28026120946025
O            7.51017038654149       -2.55477249685257       -0.04592521658856
C            6.85060345084957       -3.79346244992685       -0.07133948307587
C            5.43783145213288       -1.37937132719802       -0.57968230633947
C            0.44575656388008       -1.07292858545584       -0.68064339239557
C           -3.51738903516643        3.99759245866702        0.03594242289496
C           -3.91298116288697        4.82241697771113        1.24160507962939
C           -2.91673008129643        4.87141130913374       -1.02160527394414
H           -5.59274616613630       -0.18588160353840       -1.60427129164333
H           -7.88793925100245       -0.60227021614402       -1.58223986658950
H           -8.50347225125657       -2.18918543867326       -2.04298010152807
H           -6.99374489464933       -1.57827057102825       -2.77340975503633
H           -5.47468108554304       -3.90959866636673        3.06654772697745
H           -6.28728036101723       -5.27131124975171        2.23008338113226
H           -4.55740111441667       -4.91926921757853        1.91319769261272
H           -3.66073712031488       -2.86279772545644        2.07578898044311
H           -2.48565802802232       -0.88856444077898        1.21996051814668
H           -1.09195785449722        3.63314976265635       -0.75049543995205
H           -0.58027153397971        3.15853110009358        0.85388349325501
H           -3.44319569462231        0.32545871532759       -0.74888194229384
H           -1.17513161583414        1.12383826247394       -1.18579898955669
H           -2.09848311476951        1.52261031113727        1.90671173623513
H            1.15260505882279        1.97919163776505        0.53925101751853
H            2.72021368313651       -1.01910069198847        0.77324273221634
H            2.84112219633295        0.74312692066204        0.82614157061504
H            3.07741213725677        0.74760936200949       -1.69754022589719
H            3.04104614405093       -1.01834785248991       -1.66548150636580
H            5.03140269572659        1.95631638269803       -0.87429217276606
H            7.43409685390447        1.90629964509138       -0.39393683987632
H            9.37178368055755        1.45139541124460        0.88547252420456
H            9.68569470071031        1.26606238116751       -0.87954654498529
H           10.66291263600522        0.37752962094755        0.27614741511159
H            7.62319911470808       -4.53985159960158        0.10814643929579
H            6.09131275241429       -3.86128542583752        0.71574673468358
H            6.38296613655685       -3.98557473983301       -1.04310042822776
H            4.86808107650477       -2.29158514348555       -0.64186238654734
H            0.46435851467613       -0.97901269739035       -1.76842797528866
H           -0.59532061308718       -1.07592681941741       -0.35722708618236
H            0.91802933818966       -2.01413579808763       -0.40407027153878
H           -4.46430314024535        3.57890934654133       -0.30792311122130
H           -3.03172220169886        5.26594379273761        1.66805858706157
H           -4.37620440629775        4.20421372916760        2.00211955436133
H           -4.59910299055444        5.57691247488746        0.87992024423334
H           -2.10264340597880        5.45056515658460       -0.59127232605915
H           -2.59177679957704        4.35893205243581       -1.92163887598688
H           -3.68701735311682        5.54613305680662       -1.30354310448726
H           -4.25694611810145        1.56711385491665        2.87521709801057
