72
 energy: 93.615112634758 xtb: 6.6.1 (8d0f1dd)
N           -3.15257631859332        2.67289982705834        2.62744483281910
C           -2.60219606548569        2.03859020409360        1.73565221157373
C           -3.04846283499342        1.92252109833027        0.34244192803920
C           -3.68424321065162        0.45442659309791        0.23279327211209
C           -4.82028272897770        0.07548978139197       -0.46092325172066
C           -5.35615652695715       -1.17680617098985       -0.27778260894075
O           -6.38647210707670       -1.67097993539026       -0.99780560490363
C           -6.92170728868708       -0.85151891403437       -1.99043116595410
C           -4.84158664618680       -2.08207098784175        0.65262953064473
O           -5.47056600131671       -3.27290063404777        0.69102465838559
C           -5.02223153374308       -4.18098757676287        1.64782344808492
C           -3.73353383842792       -1.73341193089168        1.36750918770351
C           -3.16150394288006       -0.49872048903877        1.11898410591071
C           -1.71283380388118        2.14966386287897       -0.24840488453476
C           -1.02338512953192        1.20344795882442       -1.14514044638240
C            0.41104237968246        1.12139645710223       -0.78958322734936
N            0.86674083038671       -0.03964079400137       -0.24156203118753
C            2.25193040818331       -0.06813499915216        0.00159222571419
C            3.09685141058975       -0.44166942313161       -1.22868317006738
C            4.53636391077915       -0.36480428207218       -0.85483924214443
C            5.24641175635033        0.81652352607176       -0.92990229489181
C            6.56735107402276        0.89633768376730       -0.51830964174670
C            7.20541506421310       -0.21811969989503       -0.01664548113370
O            8.50450453165645       -0.27700239567828        0.39018449313846
C            9.28326182369245        0.88073492632583        0.25061113088514
C            6.49727461220894       -1.42671807520589        0.09201998380633
O            7.21140532658512       -2.46870821530708        0.61374657790167
C            6.54418144691804       -3.69271678675995        0.71279893477948
C            5.18910193346502       -1.48201769594252       -0.34755890282537
C            0.26252495036089       -1.29756965958964       -0.50362108522377
C           -3.81766854812816        3.16268152069881       -0.09844094924646
C           -4.73846386992208        3.58914873675158        0.98786662076806
C           -3.04533994167525        4.47079417125543       -0.15652987727751
H           -5.26893217225574        0.71707796454886       -1.19294324640444
H           -7.31117265382425        0.08316014200725       -1.56686883105279
H           -7.75642351042629       -1.40546308894963       -2.39154452754450
H           -6.21156579355439       -0.60097779443862       -2.79278630272315
H           -5.09517727785233       -3.74091606997588        2.63797487503939
H           -5.69147515293269       -5.02617231019297        1.56510527531597
H           -3.97635090243748       -4.49713926336721        1.49741593953155
H           -3.31293016313906       -2.41602319308908        2.08820797279339
H           -2.27249407658470       -0.29743014748882        1.69596890818314
H           -1.94920838911304        2.98405286225554       -0.78291933539907
H           -1.06551963474772        2.28903163028492        0.55255822490516
H           -1.70490793694809        0.36760090223034       -0.93762322151388
H           -1.10184571035446        1.69538976242247       -2.09782948556154
H           -1.58397588511065        1.73760328046510        1.90533581642062
H            0.98123196152750        2.01057758578665       -0.52952329668551
H            2.44435005342041       -0.78491976061240        0.80144101224780
H            2.52049757715770        0.92841444582623        0.33851418386167
H            2.84303102603794        0.26341674271145       -2.00953180807072
H            2.82658596150989       -1.43867720941262       -1.56727794812056
H            4.77354708249648        1.70065131883988       -1.30612083518937
H            7.09459997770187        1.83391674933199       -0.59434968619890
H            8.85385452537301        1.68359888016833        0.85359039660933
H            9.34340444007647        1.21912008895374       -0.79078495316688
H           10.27815723205782        0.61501477204812        0.60623927390334
H            7.24119587500617       -4.40781422070052        1.14203554551901
H            5.64903959674792       -3.61689007094762        1.33515759451088
H            6.17603401564078       -4.03665455827251       -0.27295117933660
H            4.63669114885779       -2.39624738897192       -0.30510561176100
H            0.18411707999642       -1.49998692018113       -1.57655818783700
H           -0.72930928177477       -1.27657603225562       -0.07669251784427
H            0.86687786620542       -2.06940514680706       -0.02086453507947
H           -4.25533430899681        2.91710259594709       -1.07324087836894
H           -4.04632912576250        3.91833081433054        1.74195225117784
H           -5.35255461138676        2.82726333128536        1.35733045724034
H           -5.37854273882161        4.36998616629933        0.71045034024870
H           -2.33362793690034        4.70565539454044        0.61304239605100
H           -2.49539351256796        4.44972775390657       -1.07190596676816
H           -3.81979330402612        5.22739510782000       -0.05951579224477
H           -2.58238053224289        2.66384999025564        3.42781797980661
