72
 energy: 95.949143678451 xtb: 6.6.1 (8d0f1dd)
N           -3.46417318289494        2.61437239745254        2.62581505898659
C           -2.77397527482366        2.05265711463401        1.78374116766682
C           -3.04334937105861        1.95018715389901        0.33886440656362
C           -3.69432778029632        0.42172176713335        0.19038859048256
C           -4.84929939801378        0.03390480975645       -0.47735811269124
C           -5.41137838699650       -1.20279951443672       -0.25505296172876
O           -6.46570162969817       -1.69307841537866       -0.93674049854005
C           -7.01867998219522       -0.89447080783623       -1.93718476698313
C           -4.89495925361366       -2.10402058254704        0.67911233957320
O           -5.54224039619157       -3.28124032146104        0.74888079117003
C           -5.09026551281310       -4.19247893222120        1.69984582979869
C           -3.76009549659951       -1.76348956344552        1.35293374890484
C           -3.17556066582155       -0.53627745930402        1.07674603145967
C           -1.63418698150444        2.12388479704234       -0.08098664639534
C           -1.01273474482323        1.21763550716403       -1.06066279056762
C            0.44173368050613        1.12235104182840       -0.75036546825896
N            0.89838422275925       -0.03542596659959       -0.19619283937854
C            2.28685239317380       -0.06558714501022        0.03044359769327
C            3.11823011990121       -0.41264182435406       -1.21662830549066
C            4.56091577045646       -0.34659092716152       -0.85336055339102
C            5.26935504820103        0.83647079221546       -0.90471415041333
C            6.59432793833529        0.90773319250340       -0.50595451678206
C            7.23592813546334       -0.21812597959133       -0.03724502201944
O            8.53759581343995       -0.28737374907153        0.35644427054389
C            9.31875281951368        0.87005167300415        0.23361046788194
C            6.52993741351734       -1.42901171674541        0.04821602490536
O            7.25046718958626       -2.48147291436531        0.53757446066960
C            6.58347146214977       -3.70687296765322        0.61835366942356
C            5.21865110385777       -1.47563253844797       -0.38064396835351
C            0.30580943409138       -1.29110041829250       -0.48828574093740
C           -3.77954900990364        3.18117851252295       -0.17670368893048
C           -4.72878066122470        3.71021187364397        0.84881981485928
C           -2.96982410458329        4.45897037355889       -0.29689344096900
H           -5.32599417594141        0.67113900200195       -1.19445377206595
H           -7.40383314714605        0.04695328508389       -1.53105849126370
H           -7.85684726363864       -1.46166310421421       -2.30409878358066
H           -6.32876427811967       -0.67221757840353       -2.76491578417249
H           -5.14321494140065       -3.74743578671553        2.68818089041881
H           -5.77667829343412       -5.02631385364506        1.62299700342581
H           -4.05259958403708       -4.52441448813863        1.53571355680997
H           -3.34000842464441       -2.44717021139156        2.07419025079674
H           -2.27721829656677       -0.34397103740745        1.64325654410005
H           -1.72216144047346        3.04522095648509       -0.50852530569239
H           -1.02932358583616        2.08095337973967        0.77081154535611
H           -1.77719373738845        0.42193355238904       -0.88369350531338
H           -1.11021168447365        1.75626164149024       -1.98944326121044
H           -1.76271725711341        1.80941441361519        2.06958613252427
H            1.00073390853061        2.00966466535152       -0.44161411858264
H            2.49027697919593       -0.80023648146179        0.81033397030034
H            2.56086812475207        0.92225283284664        0.38966780623950
H            2.86086743451741        0.30850958001169       -1.98216253553994
H            2.84401224273205       -1.40124409436572       -1.57401452352511
H            4.79214872920248        1.72915313612800       -1.25356926696605
H            7.12232770424558        1.84590013503461       -0.56553540070085
H            8.90037593899582        1.66033996956846        0.85954620159481
H            9.37484394875881        1.23041280549695       -0.80041262032551
H           10.31591291368664        0.59188812271174        0.57179039648017
H            7.28771791696690       -4.43035467897576        1.02020983042859
H            5.69942296123019       -3.64565404209841        1.25738058939978
H            6.20136004925871       -4.02950206993232       -0.36831122709007
H            4.66969183950420       -2.39229574569897       -0.35829692343197
H            0.25200630738123       -1.46797326844114       -1.56605849549529
H           -0.69332920180365       -1.27682248591078       -0.07902345262401
H            0.90577698336301       -2.07084775342979       -0.01290901731771
H           -4.21745784640946        2.90434126873728       -1.14068110791683
H           -4.07197076075895        4.10748768620219        1.60783114604168
H           -5.38148719885357        3.00541831138088        1.27165883088796
H           -5.34352473034460        4.46687285737763        0.45475923367106
H           -2.28322893983196        4.73380941513345        0.48278795721951
H           -2.39357822038259        4.37080890879165       -1.19558832572980
H           -3.73300412198172        5.23079578326557       -0.25825068881657
H           -2.95928823806834        2.61502473063677        3.47441476127265
