72
 energy: 20.601221907059 xtb: 6.6.1 (8d0f1dd)
N           -2.02055416629175        2.79294709901128        2.41636298188952
C           -1.88461628456347        2.08435230567275        1.40744833321568
C           -2.92535207437900        1.95078511634158        0.36582715975725
C           -3.53907080572794        0.57886610656368        0.36363585241190
C           -4.53325957694119        0.19234337772291       -0.51180293705010
C           -5.04019143930837       -1.08346530360563       -0.43857353299245
O           -6.02132320467350       -1.57437084112920       -1.25640513578219
C           -6.54992836363970       -0.69815227549813       -2.20524023735417
C           -4.56583838024354       -1.99798871685157        0.51168389692620
O           -5.16719780417298       -3.21847777390051        0.48444752241056
C           -4.77361132845201       -4.13069793285182        1.47137289394458
C           -3.55570009931355       -1.61516405479570        1.36222611479870
C           -3.03248504018810       -0.34230691844926        1.25949628978636
C           -2.08822870329495        2.21942397499461       -0.87151075334092
C           -1.17317947305103        1.19575787694212       -1.51047545420088
C            0.14385227265184        1.14703060429931       -0.85552800090897
N            0.71371102675003       -0.04240072095257       -0.46060635537076
C            2.08869995412660       -0.05610352929759       -0.11438538066229
C            3.00259294441341       -0.52544264203517       -1.26598757474475
C            4.43321041362298       -0.42054434246685       -0.85016672435330
C            5.15113545404023        0.74931003315022       -1.01310054808935
C            6.46120647765622        0.85527861333265       -0.56806423363626
C            7.08289589061113       -0.21569393569471        0.04617587162808
O            8.37018069417848       -0.23657237968725        0.49747529825432
C            9.15065240665800        0.91462499202740        0.30490222090347
C            6.36353960118680       -1.41342809261389        0.23489500848199
O            7.05461421087754       -2.41539403543926        0.85824461904669
C            6.39769487224433       -3.64015557465058        1.03116449246592
C            5.06136103025506       -1.49564327326583       -0.22559271873308
C            0.05456231194463       -1.30466914435356       -0.58135686678936
C           -3.90318928358549        3.11565253386093        0.35929597848338
C           -4.62607487413459        3.09005598535991        1.66431128279248
C           -3.31029700114660        4.50690109525209        0.34103329379571
H           -4.85643590759194        0.86362258139900       -1.28094161457152
H           -6.96136076797764        0.20426188960594       -1.72172986058501
H           -7.36768963737032       -1.22720519021958       -2.69700182624139
H           -5.80047242207442       -0.36162964723089       -2.93486507849508
H           -4.93295462654112       -3.71697240205881        2.46827445945885
H           -5.39568320436775       -5.00609453164980        1.34875148849258
H           -3.71120241744044       -4.41467633798391        1.38103369674235
H           -3.14415461920989       -2.28667005709925        2.09564510078903
H           -2.20074471595410       -0.07102998794198        1.89109675225038
H           -2.81602548599111        2.60720123420461       -1.54278695429270
H           -1.41432472593767        2.96323808133997       -0.55156161305278
H           -1.62615227314040        0.24472445658439       -1.33264104704058
H           -1.07025652463954        1.48133519136107       -2.56228538408974
H           -0.94152655607738        1.63348832693071        1.12712751507074
H            0.78966148673931        2.00805713856344       -0.87070245128167
H            2.23813091683903       -0.71314890708770        0.75112323442223
H            2.36256696277202        0.95817620115417        0.16352102765847
H            2.78858253382048        0.11744885675166       -2.11182444802537
H            2.74750320300058       -1.54977570873661       -1.53777402640585
H            4.69453628306194        1.59962525444091       -1.48649821003579
H            6.99083829251248        1.78444423214322       -0.71092118728131
H            8.70526766800089        1.76534658692626        0.83054699466874
H            9.23982461154001        1.17146911752707       -0.75763224374008
H           10.13195722089924        0.68181125656562        0.71926856755166
H            7.09347029850104       -4.30954853273612        1.53489828396063
H            5.48702121459893       -3.52895438282880        1.62783174889819
H            6.07674063106544       -4.06623877503964        0.06409761674202
H            4.49804861018340       -2.40156630412535       -0.10721323451483
H           -0.10573990237830       -1.59948898418977       -1.62716631116872
H           -0.91120712571004       -1.25479889098312       -0.08766330947682
H            0.65018457127928       -2.06513055968629       -0.07988501247117
H           -4.54995138806468        2.96355012687701       -0.51111020746784
H           -3.83003750965506        3.17929234831072        2.37239709189747
H           -5.11173324877184        2.15882902486026        1.76211406239569
H           -5.35811113053152        3.85675486876316        1.78918576877987
H           -2.53276302037137        4.67183923191481        1.07090181571583
H           -2.89242122640685        4.66544815948215       -0.63092470019099
H           -4.11981773053628        5.19644594503719        0.58395992354325
H           -1.24893422932581        2.78168481554588        3.04001212429850
