72
 energy: -4.935635204618 xtb: 6.6.1 (8d0f1dd)
N           -1.63021477472109        2.79931704053457        2.28986149219295
C           -1.62947919431553        2.13373409969858        1.22878450848352
C           -2.79054734973526        2.03481718807142        0.28852117360294
C           -3.37975805990102        0.63901036228965        0.34366649043463
C           -4.36329250844242        0.23655132175179       -0.55504737301488
C           -4.89523171841494       -1.03641825484201       -0.50687985309825
O           -5.86975786061389       -1.51593224238138       -1.34126314102804
C           -6.42710850353656       -0.63556407223052       -2.27653833657800
C           -4.44176121642219       -1.95567304024834        0.45886676082184
O           -5.03892637700516       -3.18214347639322        0.42387531126581
C           -4.68852492134811       -4.10766860294555        1.41952593142720
C           -3.46134525427526       -1.55541747318082        1.34510844108244
C           -2.93361705873770       -0.27321241702815        1.27935856850966
C           -2.17823646042787        2.27497803273258       -1.10307996820407
C           -1.24468881445783        1.18907309255789       -1.65447086568952
C            0.03071866385019        1.13624836348330       -0.89802406139567
N            0.64959901526800       -0.04707657309630       -0.54217115291276
C            2.02161201376534       -0.04461059219756       -0.15202331811331
C            2.95592421264071       -0.54242391400271       -1.27720037048532
C            4.38315845582910       -0.43378487941730       -0.84509324799558
C            5.10155172698614        0.73178761446497       -1.03786930234833
C            6.41077215687910        0.84371682290025       -0.59142636626316
C            7.02472957822033       -0.21180644069465        0.05859850721622
O            8.30611131894688       -0.21871601444883        0.52487802778321
C            9.09370072984839        0.92536580133352        0.31804622615827
C            6.30002194065290       -1.40491946330703        0.27300552946042
O            6.98410035214600       -2.39242359021463        0.92161810321518
C            6.33887692503428       -3.62080949424987        1.12739112672271
C            4.99692508077531       -1.49554963468447       -0.18076748710690
C           -0.02840738652267       -1.30747563238633       -0.61231257684641
C           -3.88868593744940        3.09110430667480        0.53275627495408
C           -4.53331840448283        2.87018892487261        1.88546786089762
C           -3.38551643494397        4.52469152960430        0.50534942074782
H           -4.69112948752715        0.92107323019089       -1.31535262230141
H           -6.86325022699494        0.24541868488552       -1.78393783609103
H           -7.22254153871947       -1.18774091061171       -2.78066708886328
H           -5.68606715584739       -0.28854282862107       -3.00682363298070
H           -4.88917049847964       -3.71311930788325        2.41984285885669
H           -5.30893034023007       -4.98251893791039        1.25282707035688
H           -3.62995813276504       -4.39671675538676        1.35622123921344
H           -3.08171241690519       -2.22960796622263        2.09601954251098
H           -2.15663818682251        0.01031082666166        1.97160667215171
H           -3.00323166962252        2.45451105760033       -1.78263226849163
H           -1.58042032767586        3.16716390778262       -1.02794953813780
H           -1.74616993373975        0.23576867797790       -1.59306864094376
H           -1.04471619424649        1.41100024907171       -2.71535288295445
H           -0.74451095625608        1.63599352562686        0.79355139807310
H            0.68064278961547        1.99408834095535       -0.96218880875929
H            2.15186891547530       -0.68074765928864        0.73215604436111
H            2.30939848082012        0.97277193921396        0.11519881796926
H            2.77047995920853        0.07650005509062       -2.15255150200780
H            2.70353136334289       -1.57480564044334       -1.52254506136308
H            4.64789595800258        1.56872071974794       -1.54419068481181
H            6.94488033584246        1.76487815313163       -0.76425302229566
H            8.66183242555489        1.79761103561577        0.82051810771809
H            9.20848294088831        1.15024153641056       -0.74856146781756
H           10.06607915356271        0.69478753531494        0.75227311163501
H            7.05777713672605       -4.26114974788241        1.63679018881812
H            5.44425823412963       -3.50858550417209        1.74891361450770
H            6.03591505609068       -4.08261556014892        0.17695273986477
H            4.43193496071614       -2.40051159449863       -0.03281892880624
H           -0.20208368570543       -1.62543627832808       -1.64782689169883
H           -0.99126577479871       -1.24508984544085       -0.10365875295172
H            0.57064569819476       -2.06327765438153       -0.10986309250214
H           -4.63913480385774        2.96343187775911       -0.25570095707526
H           -3.75763207684375        2.95816543057360        2.62724809117942
H           -4.94980709726821        1.88081383191937        1.92660056821494
H           -5.32568332273791        3.58293802716415        2.08248584527117
H           -2.59053086351123        4.67540404278625        1.22596748146572
H           -3.01817991974914        4.76980741530192       -0.48062669905116
H           -4.20732292154688        5.18856461206069        0.76930053212962
H           -0.77542223219631        2.78030008388813        2.82629520328936
