72
 energy: 4.730650834027 xtb: 6.6.1 (8d0f1dd)
N           -4.03990616655751        2.08592162478774        1.72760641358689
C           -2.82990473277696        2.14750727349635        1.27099079914735
C           -2.42389556515193        3.16463075335832        0.41093352144020
C           -4.04326183121616       -0.60102946861689       -0.33296175007510
C           -5.26367828076011       -0.99165530264486       -0.87071178570553
C           -5.93448069685075       -2.08859661636207       -0.36102897925019
O           -7.12584329305841       -2.55406566331676       -0.82247473141652
C           -7.73576703327827       -1.87465112105224       -1.88884581454371
C           -5.37607078804324       -2.80583932851727        0.71995251239478
O           -6.11554339124815       -3.86828927824326        1.15115981593645
C           -5.62956377730802       -4.62122024883211        2.22885090326949
C           -4.16310776298889       -2.39782349464107        1.24888679500510
C           -3.49815056479676       -1.29697974692304        0.71905158385095
C           -1.05368043726303        3.13449047812532       -0.16836514381956
C           -0.54476908127302        1.73793898726412       -0.37356951553457
C            0.63153226396563        1.31927288229138        0.09468403576798
N            1.15527813197251        0.06024257325668       -0.00851532605194
C            2.55567528450060       -0.14178817781780        0.22207650618174
C            3.38844826971235       -0.08627435323561       -1.07431590923051
C            4.85463430359277       -0.13224378297818       -0.76758369275685
C            5.61018336440199        1.02316468869859       -0.73904591135554
C            6.96781798019247        0.97946594753651       -0.45032885239580
C            7.58404672888835       -0.22629582932024       -0.17470164588179
O            8.90516690240721       -0.39475227642685        0.10977569431056
C            9.74652819977757        0.72932751166331        0.09734078912033
C            6.81730475251940       -1.41369904738956       -0.18244440900670
O            7.51186860069536       -2.54934397075095        0.10693897720182
C            6.83081059742128       -3.77702218236652        0.11115616207524
C            5.46943304662901       -1.35048329797347       -0.47833183794962
C            0.45132528966424       -0.95601677281902       -0.74213400256366
C           -3.39652759828456        4.25895848707988        0.16430077179570
C           -3.52585548747444        5.10035165773618        1.43125413142702
C           -3.05523094642507        5.12405610737255       -1.03197342091712
H           -5.68784690518579       -0.43112583221896       -1.68829911913680
H           -7.98937396637456       -0.83912906993092       -1.63407512458312
H           -8.64899608569815       -2.43176243353096       -2.07412331004344
H           -7.11319688466413       -1.87670538271183       -2.79144305625673
H           -5.54159944490338       -4.01733225649534        3.13863243332060
H           -6.36995685714954       -5.40443324546288        2.38416126776888
H           -4.65660068351063       -5.07148178969334        2.00002512148160
H           -3.71733916479669       -2.92875117928832        2.07537182012968
H           -2.55534994580654       -0.99113199689034        1.14795038177453
H           -1.05297888595761        3.67474292592130       -1.12659108379982
H           -0.37348209411741        3.67517194128955        0.50136863302430
H           -3.50875391296974        0.24733584199497       -0.71468833808133
H           -1.16658409376979        1.09536475794411       -0.97395256316722
H           -2.06066151989673        1.40312811252874        1.52338435373396
H            1.25320077232051        1.99972457509840        0.66090820068540
H            2.70030478480417       -1.11650484832068        0.70187545864243
H            2.91133933939209        0.62696728444416        0.91177168497023
H            3.14577440183547        0.83591533620506       -1.60600918569845
H            3.11152616999436       -0.92999602488833       -1.70916561867813
H            5.14746180534359        1.97470357456296       -0.95490058590810
H            7.53556742403989        1.89669908099647       -0.45184856221475
H            9.45417901643949        1.46019126874233        0.86034659620158
H            9.77281060279961        1.20527494518788       -0.88795698407323
H           10.74146494381883        0.34968758888452        0.32253021503755
H            7.58446953550556       -4.52590681152493        0.35068145191591
H            6.04400777703270       -3.80197165123838        0.87262129249515
H            6.39541801048039       -4.00424781921483       -0.86779053518286
H            4.87599395813021       -2.25150669061234       -0.49953694081721
H            0.48106116969924       -0.80057783139064       -1.82660476360029
H           -0.59266626802319       -0.97311565520097       -0.42999952610088
H            0.89825963096136       -1.92249362909565       -0.51432833630181
H           -4.38066344480941        3.79902350900881        0.02891972076175
H           -2.56649944575998        5.53014702010409        1.69359818403427
H           -3.88376960828327        4.47514728367879        2.24224145646020
H           -4.24144274059652        5.89673622760868        1.26228236446776
H           -2.14393150111455        5.68590860122162       -0.85206438390347
H           -2.93934889760329        4.54263373204425       -1.94071341411145
H           -3.85446481084385        5.83182708870237       -1.19697885625428
H           -4.19479732973081        1.32935149294958        2.38181750679195
