72
 energy: 94.978160910864 xtb: 6.6.1 (8d0f1dd)
N           -3.73752774449890        2.53644344913429        2.60173123848023
C           -2.91601982583457        2.07214663245308        1.81676616226368
C           -3.02794272101509        1.99765229462580        0.34650253541105
C           -3.71066426349892        0.37878199675484        0.14775589346452
C           -4.87395492578272       -0.01851792274292       -0.50999880640335
C           -5.46059293554093       -1.23536188982781       -0.24479348710651
O           -6.53913275061179       -1.72002606878782       -0.88691225066643
C           -7.11196473609358       -0.93966989678462       -1.89053909318329
C           -4.94589107071439       -2.12889274625498        0.69886839905291
O           -5.61202959424399       -3.29044002755313        0.80612918631182
C           -5.15501507159569       -4.20363835188428        1.75261321565911
C           -3.78763134207880       -1.79845977194362        1.33351387345874
C           -3.19564710003964       -0.57661770358554        1.03739332374996
C           -1.57823461612123        2.10695748317180        0.05900050278389
C           -1.01234370984013        1.23110767524933       -0.98129902941624
C            0.45559400155419        1.12283941682149       -0.70206779977153
N            0.92568809300110       -0.03300312741600       -0.15477992390281
C            2.31732340733057       -0.06265943106601        0.05796290975306
C            3.13867751765238       -0.38177302579370       -1.20373444138624
C            4.58449698095917       -0.32682092007568       -0.85016349032806
C            5.29207340119305        0.85733394627593       -0.87833156630309
C            6.62153169337075        0.91933167541685       -0.49397060611653
C            7.26598228711278       -0.21764014272278       -0.05909464044421
O            8.57028715835600       -0.29730676036785        0.32078702339635
C            9.35472183454576        0.85914905078658        0.21547550225877
C            6.56158901634688       -1.43020062531759        0.00317610935137
O            7.28816111969411       -2.49319222991307        0.45861227172538
C            6.62227155243481       -3.72016519661343        0.52231549832509
C            5.24673849247321       -1.46749853684291       -0.41329509587418
C            0.34140487898900       -1.28436815770240       -0.47513939324732
C           -3.74608318738815        3.21317233477782       -0.21887401668482
C           -4.71142607860055        3.83139087702175        0.74854681586066
C           -2.89917622665821        4.44894936349930       -0.42585158061749
H           -5.35519200756523        0.59967801274262       -1.24203465819177
H           -7.49103620709187        0.00887155507791       -1.50068814893906
H           -7.95394126054700       -1.51832061294171       -2.22142818271083
H           -6.44237963626454       -0.74513500393469       -2.74151696663573
H           -5.18894573783247       -3.75591478124599        2.73979360372802
H           -5.85492022215413       -5.02865222718699        1.68131270175431
H           -4.12473250902913       -4.54901229415657        1.57560676175949
H           -3.36867392622614       -2.47921772361099        2.05847353524097
H           -2.29027668635553       -0.38321546629655        1.59324383559469
H           -1.53884933686606        3.07740353614769       -0.27511998862973
H           -1.02025242763648        1.92520657267048        0.93783306637440
H           -1.85273606452499        0.47075817819488       -0.83654178652921
H           -1.11515527453810        1.79678196183376       -1.90062896213003
H           -1.92046568061034        1.88539596285785        2.20025803336386
H            1.00704626975361        2.00794953011225       -0.36271869551960
H            2.53107714158369       -0.81536643683186        0.81783317293656
H            2.59720083095606        0.91548580390564        0.44123385452336
H            2.87957831876375        0.35561175708379       -1.95372459343382
H            2.86106789475985       -1.36140932449877       -1.58050849394881
H            4.81098643467450        1.75825954335950       -1.19938345695626
H            7.15078292450485        1.85759292712795       -0.53768497257776
H            8.94865971660376        1.63623995593198        0.86472589379323
H            9.40771750211053        1.24208372216609       -0.81034963933670
H           10.35368857758083        0.56778775917057        0.53564502900265
H            7.33497865805441       -4.45051675957844        0.89483113967458
H            5.75148011788079       -3.67485830168408        1.18038429979235
H            6.22581382303783       -4.02249023062053       -0.46447454386545
H            4.70111812223353       -2.38621925586076       -0.41056401877477
H            0.31257324346410       -1.43804758298768       -1.55665787503345
H           -0.66491579907119       -1.27430104596743       -0.08378547819160
H            0.92903400672238       -2.07511446303665       -0.00521537695477
H           -4.23626469654587        2.92289719227221       -1.14596099196161
H           -4.08655416123125        4.28668208359044        1.50501174745230
H           -5.39611264076663        3.17480428809649        1.20662510147486
H           -5.29877558546726        4.55535576450326        0.24785231865571
H           -2.23642220138259        4.77311351227288        0.35487662581258
H           -2.29813795948115        4.28938089891937       -1.30272268434351
H           -3.65097380921818        5.23096605429717       -0.45465319510348
H           -3.31030591915818        2.54837257505167        3.49702143397425
