25
 energy: 59.309015645770 xtb: 6.6.1 (8d0f1dd)
C            4.06837482795718        0.76052407672229       -0.00175086746426
N            2.96526161614345       -0.13552008110863        0.06018966852987
C            3.01478655211391       -1.48815691967756        0.05170180110914
N            1.74261499283047       -1.97213794019614        0.10352611124253
C            0.81053055639641       -0.93913775792842        0.13514644469693
C            1.62364156650864        0.27825842186154        0.08560862033672
C            1.21415178251321        1.53156632894487        0.07982118532644
O            0.79620323969067        2.64084803177210        0.05339464513138
N           -3.55268864684312        0.84716770471707       -0.37453886460242
C           -3.91937609499560        2.04392211475105        0.28248548680906
C           -2.94135454172785        0.38167529257245       -1.28916569797496
O           -2.50485911041457       -0.33617033231527       -2.09137884097368
N           -0.45639638142410       -0.95211896826220        0.21932883887452
C           -1.23680719968007       -2.15555033177338        0.25080292980477
H            4.01735197515582        1.47692677500634        0.82436316193080
H            4.96429392826882        0.16081909284018        0.09628518227617
H            4.06968698333700        1.32754998706986       -0.94892594394528
H            3.90471744531380       -2.06590709764843        0.02283579845525
H           -3.05785333927043        2.62729970932840        0.63195071940128
H           -4.51185602940506        2.66579162388208       -0.39030399452590
H           -4.51679140634109        1.74754721547002        1.14069917407740
H           -0.78574293928998       -2.94366701937369        0.86340593352704
H           -1.39793274948021       -2.54559008697180       -0.75993185530892
H           -2.21853537888827       -1.90865916659099        0.66482728326506
H            1.50015984598773       -2.94404844281967        0.08912795406682
