25
 energy: 42.916684257612 xtb: 6.6.1 (8d0f1dd)
C            3.58447722109217        1.03428956668744        0.04426100771758
N            2.43042911127116        0.17813139109109       -0.00403711451451
C            2.55857109530120       -1.18450673340800        0.17004191418777
N            1.33810654096838       -1.78359124101678        0.05443601438483
C            0.40199982146350       -0.82744251672685       -0.11404343738600
C            0.99171729414506        0.44942976472915       -0.08704012980132
C            0.08282858836791        1.53295806073788        0.00995616944853
O            0.22036754849689        2.74213205149956       -0.00063725607695
N           -1.65680018462551        1.09646491915275       -0.19303233161648
C           -2.72224246012994        1.91522258538542        0.27021182629221
C           -1.88473724692972       -0.10960906692521       -0.69813211400066
O           -2.98456174068707       -0.51355243428210       -1.01979198678443
N           -0.88999525426270       -1.10675660711681       -0.37763321314324
C           -1.40762684795170       -2.39663224445796        0.08724508674112
H            3.94004301694158        1.18623932462392        1.06963782815400
H            4.41881866889281        0.56397605614605       -0.50622059013909
H            3.36572964422051        1.99942712770570       -0.40613674254632
H            3.47425744040515       -1.75905925542513        0.19151806484001
H           -2.17630272470232        2.81275488080822        0.65247926899094
H           -3.41085828827266        2.29199640403469       -0.48885687785740
H           -3.28404274928090        1.27519912495627        0.95976468521236
H           -0.89877644432731       -2.79609745463923        0.96917035264155
H           -1.36431492058339       -3.13160582708691       -0.69081826602945
H           -2.46167795275487       -2.29980414256232        0.32798363443575
H            1.09964329592649       -2.77518687430938        0.13213465588649
