25
 energy: 85.879052869352 xtb: 6.6.1 (8d0f1dd)
C            3.83754270578837        0.83989313013248       -0.00741838037736
N            2.68072756104090        0.01725352611392        0.03063868207018
C            2.76169228204870       -1.32817658215153        0.10841156792108
N            1.51926220172894       -1.86994462977519        0.02819206447609
C            0.56377233522410       -0.88598461295568       -0.03418445201847
C            1.31389636611995        0.35117301797436        0.00331786907589
C            0.76987086675806        1.54137529893603        0.11468304235058
O            0.45705784702074        2.67629987875273        0.16020062187747
N           -2.69518932752630        1.00088136735982       -0.24542001867821
C           -3.39499309444713        2.01216800772666        0.30650330232973
C           -2.45303806303248        0.12761389859453       -0.97418586667088
O           -2.62166137957229       -0.56905238863224       -1.86524865001741
N           -0.71302501296230       -0.92973520389659       -0.06293829054006
C           -1.38989521595818       -2.19301463955298        0.18974904879143
H            4.03948690703488        1.33875439122229        0.94470750081746
H            4.63689371369946        0.11479870550809       -0.19769262119665
H            3.81179217504514        1.64641154153027       -0.74674248396655
H            3.66927756123129       -1.85626326776848        0.03863784409372
H           -2.70615984564050        2.62227025907315        0.92638896170184
H           -3.96654903651536        2.47568567650665       -0.49986474685107
H           -4.04143553359114        1.43391061726870        0.92037124280695
H           -0.76769578471257       -2.69981505445188        0.92993862026137
H           -1.60705841011342       -2.79377111049695       -0.70088402367177
H           -2.37082847036188       -2.01225971595162        0.61406423796923
H            1.28332470669995       -2.82675068467791        0.14710170221816
