25
 energy: 6.856402139070 xtb: 6.6.1 (8d0f1dd)
C            3.41893615232080        1.14403643954484        0.07221379005411
N            2.38728240282394        0.13282229167010       -0.01464272308577
C            2.59574337716758       -1.27101117718898        0.10196413647790
N            1.35656823894218       -1.87586957058735        0.03620017465655
C            0.40666731040658       -0.93258573553593       -0.07841593422848
C            0.95515254515059        0.34763720524278       -0.09026901003809
C            0.03917733336432        1.47055705387549       -0.14888778155365
O            0.31521614035796        2.65225175529693       -0.02965892127193
N           -1.40745848667580        1.07981647289581       -0.28839209788049
C           -2.42506052708647        2.04906335416111        0.07504343883885
C           -1.87083762444240       -0.19466414177566       -0.38526583769965
O           -3.04869704725706       -0.48488988728709       -0.45925712943410
N           -0.92335806354142       -1.20332625248765       -0.19311614211069
C           -1.42365511998257       -2.54395431060863        0.00516540009666
H            3.85488464237261        1.24750863754382        1.07442563164759
H            4.27752073304019        0.94931716719318       -0.60540688058015
H            3.00356828724985        2.11445891365519       -0.18113865694433
H            3.52174138883233       -1.81682252708048        0.08155149469519
H           -1.81739100956366        2.93512922408587        0.27023232123919
H           -3.09960916914698        2.19969368411682       -0.77111725367385
H           -3.03501878185442        1.73257966114406        0.93803266185800
H           -1.03126885922733       -3.02930803274888        0.89963262976238
H           -1.20267819650001       -3.17863774278736       -0.83215610797133
H           -2.50414512291343       -2.44015363195465        0.08269402040049
H            1.21351244057369       -2.87897789720034        0.03322998072583
