25
 energy: -0.415327359889 xtb: 6.6.1 (8d0f1dd)
C            3.35885788053488        1.15838023858718        0.07865880366628
N            2.36049297240819        0.12222988339424        0.00207789338977
C            2.60127230329268       -1.26346238548172        0.06695277086194
N            1.37976969136701       -1.90049759317723        0.02138776680812
C            0.40399596409042       -0.97745354532110       -0.04802183342619
C            0.94536952791355        0.30413966391507       -0.05205804597851
C            0.06663837272576        1.43125540983782       -0.10624350050688
O            0.37574523029131        2.61477886476043       -0.02523296144399
N           -1.36748112397883        1.04236108258162       -0.19520116322716
C           -2.35729251605793        2.07497364599231        0.02992783513321
C           -1.86419663539442       -0.20953779561082       -0.26766421518546
O           -3.05020611810426       -0.46251869925779       -0.32207386992465
N           -0.93025763481017       -1.23669239825979       -0.13020734731729
C           -1.44070094125862       -2.57882207568380       -0.01607070512873
H            3.80719596403738        1.24205436932475        1.07542964066955
H            4.19301249955541        1.00083163354130       -0.62874145249775
H            2.89855278031170        2.11592815198634       -0.14401746227727
H            3.54801849533423       -1.76152431184269        0.06177637280026
H           -1.74490338265060        2.96668560597728        0.16125790586405
H           -3.01399937898586        2.15931805109195       -0.83842439419567
H           -2.98468198490923        1.85578437839145        0.90597983297983
H           -1.08061172475976       -3.09044119399271        0.87706078603863
H           -1.17008355172826       -3.16408572977722       -0.87871456238597
H           -2.52416730427109       -2.47589964715654        0.02374350357338
H            1.26690449428855       -2.90523358049578        0.01261394956055
