25
 energy: -5.202310614339 xtb: 6.6.1 (8d0f1dd)
C            3.29670743746043        1.16952123725083        0.08239899412539
N            2.33021052374169        0.11316830206678        0.02298885320070
C            2.60436791834845       -1.25004074879622        0.04245504739956
N            1.40337309024086       -1.92429550535816        0.00760052569533
C            0.40202078963503       -1.02481887935631       -0.02413529789108
C            0.93232912490733        0.25879962663147       -0.01516281147833
C            0.09285302761029        1.39650551947632       -0.06613291420343
O            0.44970609952986        2.57720592417913       -0.01772680134668
N           -1.31840987479214        1.03313807373647       -0.10444121459234
C           -2.28723866918784        2.10726459402050       -0.01323291240105
C           -1.84608938109114       -0.20878562848979       -0.14952191557344
O           -3.04049193412259       -0.42422236176869       -0.17704553757904
N           -0.93671683704565       -1.26942502590041       -0.07522180399759
C           -1.45939208082822       -2.61051207984040       -0.04025428274199
H            3.76051694962282        1.23448846960414        1.07221455183636
H            4.09953548588734        1.02513373292257       -0.65458458789987
H            2.79453325606043        2.11204089313734       -0.11773622735276
H            3.56959382532835       -1.70159494092515        0.04821378556208
H           -1.69214210771103        3.01588656314523        0.05592890975727
H           -2.92123887498316        2.12279234194809       -0.90136100701832
H           -2.93379749513067        1.97289199882237        0.86102363631263
H           -1.12568098077836       -3.14719430477366        0.84947818097816
H           -1.14903304135566       -3.15013082566167       -0.92647505288712
H           -2.54445345599132       -2.51357731881428       -0.03109036939486
H            1.32112630994520       -2.92929556828641       -0.00635347678684
