25
 energy: 86.678119031537 xtb: 6.6.1 (8d0f1dd)
C            3.71135018296979        0.91543128300229        0.02552844881331
N            2.54197295875555        0.09013355240522        0.05171950719076
C            2.64012849089756       -1.25866113002465        0.20737849974281
N            1.41045677639639       -1.82122981459004        0.03508889446529
C            0.46908879946206       -0.85059373251902       -0.10079173481656
C            1.14179571038015        0.39246520702581       -0.02644937938055
C            0.44012996727189        1.53333511049256        0.09137701665171
O            0.29901652029979        2.70832016761511        0.08799218333988
N           -2.06272013478979        1.05792018439140       -0.15864073544257
C           -3.06619108451022        1.92120456669444        0.24262148444555
C           -2.04317037689404       -0.00642033319231       -0.80267943154204
O           -2.86404034492842       -0.56542688493173       -1.46213762846115
N           -0.83025030881561       -1.01522919897299       -0.24204379976088
C           -1.38940483746536       -2.29427787975924        0.15084984121318
H            4.01664319232683        1.21299082226870        1.03002827392986
H            4.52511440901154        0.30479241703448       -0.37747419887100
H            3.60998709712277        1.82931962581529       -0.56648036421065
H            3.54779182991559       -1.79466997226794        0.23992219308324
H           -2.47179304338121        2.69532084776760        0.81242916831108
H           -3.64870200600668        2.33460044293251       -0.57917364898242
H           -3.68759583294284        1.21944590169931        0.80900852775738
H           -0.81375427490390       -2.68935082894009        0.99378952708403
H           -1.49321398694805       -2.98216131653430       -0.67280822207674
H           -2.41135268400235       -2.17429969729740        0.49328553567576
H            1.14936420655814       -2.77945820947280        0.20216445099632
