25
 energy: 58.817379984189 xtb: 6.6.1 (8d0f1dd)
C            4.10296616417504        0.74332238426519        0.00643528800466
N            2.98451503468774       -0.14211008440157        0.05966083347185
C            3.02305306607943       -1.49090053401405        0.04665337646465
N            1.75395186622689       -1.97682804021808        0.09502690236955
C            0.81963784694439       -0.94157026223371        0.13504842781620
C            1.64102193021461        0.27370701283177        0.09079389874486
C            1.22321585038377        1.52323793492500        0.08596755311664
O            0.77993710201570        2.61914816741197        0.05688212346724
N           -3.55235360152335        0.86964722972172       -0.38604119123160
C           -3.91904323579328        2.05993756160735        0.27730235219681
C           -2.96933901492520        0.33808440045621       -1.26991470119213
O           -2.48389926962276       -0.36283504577366       -2.05671224762617
N           -0.44488442553373       -0.96348016133402        0.21964662241327
C           -1.22724959622239       -2.16234924092275        0.24948011813385
H            4.04420112157954        1.46096884350466        0.82850690989237
H            5.02739467175170        0.17438737666551        0.09446596150353
H            4.11405802568647        1.29809686374534       -0.93591926100750
H            3.91417898166348       -2.07147809276038        0.01229794942374
H           -3.03663673071988        2.61794527929460        0.59711712510065
H           -4.53147412995784        2.69082681887097       -0.37201000107856
H           -4.50415915274814        1.78090561643167        1.15433797575287
H           -0.79526380352351       -2.96504676313586        0.86037059461988
H           -1.38422855520985       -2.53624100376506       -0.76652271922548
H           -2.20184687986440       -1.89150130824542        0.65732437938198
H            1.53446103920898       -2.95684616418342        0.08683564168169
