25
 energy: 13.506546628012 xtb: 6.6.1 (8d0f1dd)
C            3.47196921783214        1.12618621431746        0.06892459140695
N            2.39668067970259        0.15104220107750        0.00684934379424
C            2.58809074290215       -1.25263643527478        0.11782902050394
N            1.34177574221415       -1.85070671417449        0.05599129115725
C            0.40966718709157       -0.90221331297987       -0.11425406077480
C            0.96097035185771        0.37939448756917       -0.12274563061770
C            0.02136301844705        1.48946667901369       -0.12812254185432
O            0.26084572736881        2.67852703868263       -0.03049875717645
N           -1.45163274469949        1.09922540969137       -0.27392668556849
C           -2.49145959601390        2.02165985483923        0.13007529187767
C           -1.87039763198259       -0.17588370426366       -0.48218393826576
O           -3.03829578266763       -0.49990703943940       -0.59960342856143
N           -0.91283840731462       -1.18082236883746       -0.25829994240486
C           -1.41155401788386       -2.51171335027357        0.02578451154611
H            3.90412951222777        1.25042412095045        1.07236969706676
H            4.33932355259984        0.86833647082641       -0.58186127308661
H            3.10840338108095        2.10601456194833       -0.22440212484541
H            3.48996662239249       -1.85574872807653        0.10530169062809
H           -1.89585595589452        2.90755881170317        0.37638405150420
H           -3.16971807425625        2.23549508969464       -0.70065384511629
H           -3.09933373695379        1.61550365969887        0.95036729852865
H           -0.98745938302579       -2.97213290523423        0.92014907765687
H           -1.24191687508222       -3.19271750546868       -0.78429642752954
H           -2.48753586905932       -2.40885312168379        0.14349000208105
H            1.17005348929295       -2.85262730173057        0.05315058774573
