25
 energy: 79.259351692908 xtb: 6.6.1 (8d0f1dd)
C            3.87052168862743        0.84200840969817        0.00056501656363
N            2.73171947166727       -0.00486988004413        0.03297711149336
C            2.80677711091097       -1.35314266082566        0.09728607367474
N            1.55908618597165       -1.88735979194010        0.03950326287469
C            0.60940050758489       -0.88864184331630       -0.00202285962635
C            1.37255246012514        0.34178613083073        0.01448556265359
C            0.85744547427563        1.54323353854100        0.11484907354937
O            0.52616738957976        2.67551868863182        0.14535966044283
N           -2.91054256499575        0.94142975863765       -0.24566565051775
C           -3.50720619717183        2.02210948891760        0.30562672543572
C           -2.54247420253044        0.18006761078324       -1.04213815177525
O           -2.53799913723607       -0.57777429093774       -1.89090810417305
N           -0.66436642361913       -0.91939609581848       -0.01203828852679
C           -1.36394244475202       -2.18085282836623        0.19632325838992
H            4.03251245034012        1.39932986655778        0.92040955356171
H            4.67034994273275        0.12268085166831       -0.10190663063957
H            3.87530040976429        1.58519568690367       -0.80994322322487
H            3.71302837348881       -1.87151244294812       -0.00459281393365
H           -2.79859091022906        2.62621001239501        0.91019554105388
H           -4.07565595806274        2.50616043362050       -0.48889608981150
H           -4.15539935048329        1.49393714325615        0.96632676394148
H           -0.77284445980606       -2.75454914279752        0.91215058332344
H           -1.59088827974018       -2.73604705911271       -0.71992006254773
H           -2.33828946200214       -1.96747091672643        0.63880817107552
H            1.31993648511575       -2.85091878700310        0.11665541809708
