25
 energy: 30.456538827062 xtb: 6.6.1 (8d0f1dd)
C            3.55461566085688        1.07402601479075        0.05559712380234
N            2.41755359615256        0.17750138820475        0.00211232193151
C            2.57197670165260       -1.20078356872868        0.15867945009402
N            1.34561615253569       -1.80466202750135        0.06307705868608
C            0.41236955369869       -0.85170661717746       -0.13632251390744
C            0.97715383030335        0.43166045058608       -0.12368365498565
C            0.03342889483436        1.51033536905752       -0.01385975744248
O            0.25384163820562        2.71021048366303       -0.00514859159159
N           -1.57368197383675        1.09933184880753       -0.18964214355828
C           -2.63809201908785        1.94835123977522        0.24166887782975
C           -1.88018222940476       -0.13719713239101       -0.61746116276554
O           -3.00817655935407       -0.51006829658156       -0.87497452742906
N           -0.89814936212641       -1.13356127348780       -0.33388882748831
C           -1.40634265019991       -2.43735983227771        0.06848485008772
H            3.95874814904043        1.22108735871237        1.06820001076433
H            4.39837114391850        0.67061881579263       -0.53635051603705
H            3.28583487512613        2.04807014680963       -0.34140077042406
H            3.47114332992400       -1.81231251299300        0.16371209708621
H           -2.08064002175364        2.84615538181215        0.57296841230813
H           -3.31327023793516        2.28523629331211       -0.55184062913209
H           -3.24011614749725        1.38548289895552        0.96567475572451
H           -0.92501752340326       -2.85736297755915        0.95549009080142
H           -1.30902422504589       -3.14361636927889       -0.72886165987169
H           -2.46983169466935       -2.34020065196934        0.26609609051034
H            1.10274211108105       -2.79788837321125        0.10631702024088
