  25
        -42.09094116
 C          3.3283352878        1.0251259861        0.0580270490
 N          2.3916441262       -0.0652963934       -0.0082044266
 C          2.6763603961       -1.3529893746       -0.0974047329
 N          1.5349936617       -2.0756413636       -0.1013489568
 C          0.4809829627       -1.2065672236       -0.0105435152
 C          1.0323142179        0.0677791025        0.0494536239
 C          0.1591639671        1.2635868297        0.0905180395
 O          0.6084499319        2.3909716895        0.0821338895
 N         -1.1297787691        0.9136620335        0.1156273241
 C         -3.7971450677        3.7442514760       -0.3702236144
 C         -1.7131809024       -0.2781536502        0.0932125561
 O         -2.8966383967       -0.4762290647        0.1222792286
 N         -0.8269093435       -1.4499851029        0.0136289315
 C         -1.3964627345       -2.7742830340       -0.0048384273
 H          3.8469629673        1.0156243716        1.0169301162
 H          4.0629112891        0.9436755823       -0.7417636124
 H          2.7758004373        1.9608885164       -0.0363610936
 H          3.6617706391       -1.7710165709       -0.1594386724
 H         -2.9237272858        4.3671133933       -0.3286232460
 H         -4.1798420595        3.4155776951       -1.3177015672
 H         -4.2851513274        3.4385166145        0.5357936960
 H         -1.0474256791       -3.3572677285        0.8483675155
 H         -1.1531714184       -3.2907985332       -0.9354350576
 H         -2.4779865951       -2.6545546421        0.0614632421
 H          1.4861798424       -3.0809876750       -0.1762533409
