25
 energy: 0.000000000000 xtb: 6.6.1 (8d0f1dd)
C            3.23720132972391        1.16630909158653        0.08434468864950
N            2.29877796055224        0.07527476373246        0.03981602671198
C            2.58028186251803       -1.21425391179017        0.03006175752192
N            1.43813944744728       -1.93419254010258        0.00098261751768
C            0.39035684826767       -1.05887462812143       -0.00790371763344
C            0.93510047688824        0.21347817468824        0.01709077332874
C            0.09450143016486        1.40504290868848       -0.00410946993748
O            0.49712746915594        2.54126690785742       -0.00342325656480
N           -1.25076628431515        1.06271869620815       -0.03085477937476
C           -2.21907191394203        2.15522079838987       -0.05001256521996
C           -1.81739470187490       -0.20012724136556       -0.04692818139228
O           -2.99983858926755       -0.37846413507442       -0.07008877579474
N           -0.92618577614240       -1.30210203518959       -0.03682761236648
C           -1.46982251276835       -2.64643077634382       -0.06029819901142
H            3.71247229913541        1.21471443890471        1.06488839270555
H            4.00791460421487        1.03430799217987       -0.67357688121503
H            2.69909982127087        2.09770098766290       -0.09130154035862
H            3.56654087521359       -1.63682977417947        0.04233139674524
H           -1.67107945562430        3.09322822573871       -0.02552706696334
H           -2.82428927394145        2.09428605349656       -0.95318074103337
H           -2.87644002486466        2.07745706351925        0.81450059976605
H           -1.17061985538665       -3.19584861009707        0.83242224714061
H           -1.14560246782873       -3.17511580834413       -0.95688266944647
H           -2.55549768731684       -2.55659960601237       -0.07459039105944
H            1.38130842369251       -2.94313824728853       -0.01389874052104
25
 energy: 0.027827457071 xtb: 6.6.1 (8d0f1dd)
C            3.23021886152214        1.17673123484631        0.08574110933462
N            2.29096187963931        0.09319771676146        0.03787637221923
C            2.59469323202327       -1.23231009528216        0.03108118049768
N            1.46220281793725       -1.99727558021626        0.00093823375113
C            0.40347129962011       -1.09244930396628       -0.00855599740643
C            0.91618429346737        0.20792995209110        0.01508860516143
C            0.09187822931349        1.39777952231315       -0.00476587185679
O            0.49051198011872        2.56402117902685       -0.00309070796787
N           -1.27071768678590        1.06579640925475       -0.03122030190411
C           -2.23217921541203        2.16769398077136       -0.05005283184918
C           -1.82624582971185       -0.18848317203584       -0.04776981076910
O           -3.02392735102666       -0.36553800607333       -0.07141044694261
N           -0.93700611287192       -1.29985446682796       -0.03732123231214
C           -1.48744383248713       -2.62981725332394       -0.06010210940268
H            3.71337611927987        1.21783362700605        1.06583779878920
H            3.99832505379434        1.03547525886775       -0.67654390814630
H            2.70068284271444        2.11180051621339       -0.08831104476294
H            3.57360102726976       -1.63892951658975        0.04467551565873
H           -1.67848472367932        3.10459297652707       -0.02561261846084
H           -2.84125159744009        2.11815602888496       -0.95276323062870
H           -2.89356635549228        2.10145572489341        0.81378214590744
H           -1.17709206363505       -3.17401862501240        0.83253816122544
H           -1.15284875593055       -3.15374284658083       -0.95617912476778
H           -2.57225768786010       -2.53336016236183       -0.07390967971482
H            1.53912788060524       -3.06765631044299       -0.01291629345806
25
 energy: 16.016193838041 xtb: 6.6.1 (8d0f1dd)
C            3.22202335543346        1.18059086719333        0.08660820696978
N            2.27651897112464        0.10753737812234        0.03437863317297
C            2.59854895669332       -1.24318469986086        0.03311630119845
N            1.48327204015286       -2.06508925731057        0.00131274313923
C            0.41320400286283       -1.13397494253518       -0.00948473290089
C            0.88994569976696        0.19248337155223        0.01236997778681
C            0.08808756196145        1.37889092267659       -0.00529344015556
O            0.47873398686552        2.56145755782127       -0.00224328533142
N           -1.29813995675921        1.07678369373892       -0.03165530718504
C           -2.24867387183512        2.18887155239636       -0.05018376023842
C           -1.83393074557026       -0.16787668287881       -0.04862829456991
O           -3.03815926781343       -0.34976062469341       -0.07314859285442
N           -0.95217545742453       -1.28748763645337       -0.03779196128733
C           -1.51072046548168       -2.60592250264166       -0.05984520096031
H            3.71350385861379        1.21761353297500        1.06517325382733
H            3.98757581449084        1.03565416462769       -0.68026182293679
H            2.70438522702967        2.12324669681685       -0.08349538050283
H            3.57595837012711       -1.63045712710953        0.04795643313580
H           -1.68765703677319        3.12303069265196       -0.02568514462147
H           -2.86127304468926        2.14824589389040       -0.95228935369829
H           -2.91371597193325        2.13168815801664        0.81282194324382
H           -1.18944296444904       -3.14848453650849        0.83078386967463
H           -1.16643305812419       -3.12887449323495       -0.95365819885115
H           -2.59454764310423       -2.50957652827778       -0.07305971960399
H            1.77532594380738       -3.20637666223091       -0.01076325425641
25
 energy: 29.921060852841 xtb: 6.6.1 (8d0f1dd)
C            3.21715990084127        1.17934069810107        0.08648666674215
N            2.27162704523512        0.10656865063051        0.03230990118796
C            2.59739739166649       -1.24755784414681        0.03464834080777
N            1.49643473980701       -2.09580307250939        0.00178567706062
C            0.41866073008542       -1.15460341074916       -0.01024078390826
C            0.88125979223226        0.17974617344023        0.01118137492567
C            0.08582527261103        1.36884665074301       -0.00516763792982
O            0.47373901845514        2.55048348142685       -0.00141248169265
N           -1.31243092741873        1.08815606905116       -0.03197577591010
C           -2.25954750476840        2.20301765461243       -0.05043354194608
C           -1.83785252820410       -0.15734311815024       -0.04936584658286
O           -3.04085674397017       -0.34805192072548       -0.07460440369822
N           -0.95615581623404       -1.27727810184923       -0.03805600089617
C           -1.52477118744402       -2.59196497689665       -0.05956541863833
H            3.71083734425132        1.21580977181314        1.06390386002410
H            3.97999102602216        1.03773691832618       -0.68331266633619
H            2.70415815501782        2.12684499926719       -0.07950194055326
H            3.58121574015940       -1.62293313134006        0.05010877320291
H           -1.69787935830637        3.13647935720206       -0.02582932653024
H           -2.87445372478090        2.16606700158406       -0.95158509230756
H           -2.92692977292866        2.14951625842257        0.81149012578840
H           -1.20126607493801       -3.13378817060698        0.83059701814822
H           -1.17935694615640       -3.11479908348643       -0.95291069972663
H           -2.60846263457454       -2.49461781645740       -0.07220277995579
H            1.91387136831237       -3.28084424895864       -0.00931342908107
25
 energy: 36.556530608333 xtb: 6.6.1 (8d0f1dd)
C            3.21652747262983        1.17717519656472        0.08625922067762
N            2.27098176604297        0.10323300655196        0.03166995368142
C            2.59098122054717       -1.24830026863157        0.03582773052053
N            1.49603434733167       -2.10053044747120        0.00255947949973
C            0.41702002486597       -1.15574646602987       -0.01070594410732
C            0.88013074292823        0.17737393064484        0.01103063763277
C            0.08467464374457        1.36925253309485       -0.00490169818519
O            0.47232852786243        2.54732930966130       -0.00104087993911
N           -1.31668543947434        1.09514120621785       -0.03202752143664
C           -2.26326395596841        2.20823694435529       -0.05056961083090
C           -1.84140696631481       -0.15260158698786       -0.04960877014974
O           -3.04223958090623       -0.34796670447969       -0.07510659743246
N           -0.95790515121050       -1.26998671542118       -0.03816442526187
C           -1.52769906537754       -2.58718291148847       -0.05944432943971
H            3.70963925830813        1.21413647154394        1.06342845807734
H            3.97815598552086        1.03800826929646       -0.68448097983691
H            2.70382327343470        2.12585694728596       -0.07847071065943
H            3.57834443231749       -1.61958309419530        0.05040385270567
H           -1.70233060525494        3.14169629539666       -0.02595479691616
H           -2.87801582993948        2.17002625834340       -0.95181921438909
H           -2.93046494683110        2.15353940803817        0.81149417346523
H           -1.20327240169025       -3.12841370181524        0.83054354575058
H           -1.18187460206240       -3.10963742323353       -0.95267098531268
H           -2.61142202263061       -2.49253251740136       -0.07187424708807
H            1.97015317709904       -3.31949515109610       -0.00934242883105
25
 energy: 42.756720257183 xtb: 6.6.1 (8d0f1dd)
C            3.21449846716927        1.17378346435756        0.08577903948746
N            2.26356509917349        0.10298329875537        0.03118872842003
C            2.57332842503426       -1.24700531732735        0.03824906573162
N            1.49127643490113       -2.11073269588280        0.00568322954638
C            0.41099142123156       -1.15647273607480       -0.01133831559516
C            0.87222228366614        0.17830327125087        0.01097080065880
C            0.08204132949927        1.37242373068459       -0.00437048913352
O            0.46757351632955        2.54846496109711       -0.00110735006272
N           -1.32415904245566        1.10608851313993       -0.03194636435298
C           -2.26813633574302        2.21750405695647       -0.05064639054556
C           -1.84730922996142       -0.14304868067758       -0.04981392302623
O           -3.04667909227285       -0.34207818561369       -0.07535873302622
N           -0.96507098952994       -1.25760326817173       -0.03863710339971
C           -1.53242921893900       -2.57870098667771       -0.05945159745069
H            3.70760817329018        1.20984852849775        1.06255692501380
H            3.97510667412361        1.03385699378113       -0.68542263763000
H            2.70661754320284        2.12612119063181       -0.07825420535308
H            3.56429686891172       -1.61334986745081        0.05005882505918
H           -1.70659536526075        3.15026953679933       -0.02602151006322
H           -2.88226741928155        2.17740225490927       -0.95224020768783
H           -2.93471990418740        2.16103947808871        0.81180503308934
H           -1.20340160517374       -3.11890337678497        0.82940878393801
H           -1.18253066142405       -3.10052613556338       -0.95139630008450
H           -2.61618730890765       -2.49114458334611       -0.07172112359318
H            2.09257424157652       -3.40949465663491       -0.01094026774541
25
 energy: 37.473332160366 xtb: 6.6.1 (8d0f1dd)
C            3.21196071460062        1.16699864200538        0.08533413458495
N            2.24747102716337        0.10307217715222        0.03142599802805
C            2.53052910891414       -1.24265963588379        0.03948339413595
N            1.47113427820921       -2.11599835194253        0.00950140585851
C            0.39628334410075       -1.14550619089808       -0.01203178973809
C            0.85874977495177        0.18826275744143        0.01097790270688
C            0.07790620554706        1.38409758043337       -0.00380123185478
O            0.45817541474112        2.55492959381343       -0.00140391183995
N           -1.33228527652455        1.12401714950161       -0.03185698274929
C           -2.27359158363322        2.23044335879698       -0.05082828105005
C           -1.85463302306492       -0.12918561318378       -0.04979698282320
O           -3.05228555953060       -0.33126426788798       -0.07554390326474
N           -0.97763772922362       -1.23565932645930       -0.03880943555075
C           -1.53784918315864       -2.56556977962512       -0.05926243560356
H            3.70491562939102        1.20269399234356        1.06123564294367
H            3.97125131911365        1.02617266531697       -0.68611484365085
H            2.71297074399719        2.12607958220847       -0.07797146567875
H            3.52851572134376       -1.60800012491178        0.04929180727718
H           -1.71109145018483        3.16177532253443       -0.02621325048441
H           -2.88622606719292        2.18588744826135       -0.95291835829165
H           -2.93868449520138        2.16970264574857        0.81218968621258
H           -1.20231480866601       -3.10607644886651        0.82693369323404
H           -1.18194256116458       -3.08804656937826       -0.94841882050335
H           -2.62168619901920       -2.48948946890431       -0.07148845345867
H            2.31257895946330       -3.57764834887232       -0.01287960624511
25
 energy: 32.571553737376 xtb: 6.6.1 (8d0f1dd)
C            3.20909526605929        1.15967620508384        0.08522781375674
N            2.23222734882215        0.10045675094797        0.03300100612178
C            2.48427493277958       -1.24005438878458        0.03799590164149
N            1.44532881341094       -2.10763582520463        0.00882879300447
C            0.38078946464450       -1.12634280625437       -0.00998271500541
C            0.84885017994087        0.20200865562081        0.01099692904792
C            0.07086559338718        1.40136485650853       -0.00482676809003
O            0.44719787338751        2.56337146941912       -0.00102014772333
N           -1.33364540849781        1.13904360780266       -0.03213189037283
C           -2.27658022120357        2.24052910046753       -0.05100212770796
C           -1.85931089437070       -0.12069855824319       -0.04973101708958
O           -3.05629131894058       -0.31879744584975       -0.07579070987413
N           -0.98656865441971       -1.21866671099528       -0.03740526650835
C           -1.54025331619173       -2.55571189268477       -0.05878359074749
H            3.70175922160507        1.19468361460228        1.06023801256587
H            3.96728037771447        1.01661888977429       -0.68589878970058
H            2.71917774289382        2.12476227807553       -0.07842246733298
H            3.48642321302207       -1.60998177839444        0.04926753183539
H           -1.71666902461435        3.17280213883229       -0.02654794245125
H           -2.88862580651933        2.19184505686669       -0.95301675510623
H           -2.94102932185731        2.17581668855573        0.81196439196817
H           -1.19865916661073       -3.09505815038595        0.82504930123539
H           -1.17820176543044       -3.07670498017894       -0.94566147054478
H           -2.62445196984443       -2.48854472756256       -0.07133381974644
H            2.51923114580569       -3.73575325927475       -0.01398029098129
25
 energy: 23.201045902812 xtb: 6.6.1 (8d0f1dd)
C            3.21074934207205        1.15621016786743        0.08477985528278
N            2.22822472362389        0.09227329623344        0.03770619012422
C            2.43046567609302       -1.23559945900457        0.03223312576285
N            1.37502878451283       -2.02492844463160        0.00454217436713
C            0.35260784173307       -1.05907676183199       -0.00687626361279
C            0.85676863792591        0.23886573216440        0.01205125430428
C            0.06083494971196        1.43572940621336       -0.00577475671707
O            0.44263716967470        2.58325295522131       -0.00066053968534
N           -1.31352919823968        1.13870461954880       -0.03215497149643
C           -2.26942645929739        2.23481670113416       -0.05090256697204
C           -1.85970823910855       -0.13157048480516       -0.04944321346516
O           -3.05811491584613       -0.30478757937416       -0.07536331705130
N           -0.99188505791064       -1.21321412832670       -0.03594402982447
C           -1.53327126202622       -2.55861626442703       -0.05872960105244
H            3.70048426659836        1.19127442591004        1.05979941348749
H            3.96900045125421        1.01077438638189       -0.68419522172601
H            2.71977155851306        2.11938632174120       -0.08117903499176
H            3.43799809917398       -1.62871767550281        0.04944558167243
H           -1.71699606132534        3.17149253888595       -0.02648576134046
H           -2.88263250651259        2.18553766305623       -0.95189709088285
H           -2.93495304716657        2.16917818714642        0.81094600904903
H           -1.19230022568726       -3.09565648403766        0.82487172133588
H           -1.17107568343563       -3.07648855448843       -0.94558213633688
H           -2.61789900576974       -2.49050913592253       -0.07164010607709
H            2.66943446641112       -3.91930264040793       -0.01251280195949
25
 energy: 20.531586759317 xtb: 6.6.1 (8d0f1dd)
C            3.21363066633593        1.16221335112893        0.08388936548711
N            2.23336310024027        0.09361873364303        0.04012942605293
C            2.40596615293052       -1.23290996755284        0.03047293685543
N            1.30343135819495       -1.95179262610524        0.00241732721473
C            0.33207388932532       -1.00011990499904       -0.00652168331553
C            0.86822506998869        0.27452067690774        0.01359345951004
C            0.04846342537388        1.46477983700291       -0.00461095322216
O            0.43929570684231        2.60867653888580       -0.00023095936823
N           -1.30186215136009        1.14033364963557       -0.03177368469181
C           -2.26844945325994        2.23335749729764       -0.05080634614578
C           -1.86467792503474       -0.13761323899399       -0.04951372094470
O           -3.06495830886620       -0.28467606424309       -0.07514875942881
N           -1.00138736210298       -1.20815049504474       -0.03694877856924
C           -1.52752679097734       -2.55878813172700       -0.05910051413750
H            3.70086559106125        1.19336107901442        1.05992772229352
H            3.97197925008518        1.01094817083869       -0.68339957904062
H            2.71913139054951        2.12121997487243       -0.08374899274123
H            3.41218012745440       -1.64056416381985        0.04838813081505
H           -1.71994791582771        3.17277200971405       -0.02620430727022
H           -2.88017600042205        2.18030777627511       -0.95216096042335
H           -2.93247047489573        2.16352583434273        0.81141065849507
H           -1.18545743142579       -3.09412771796441        0.82458729643307
H           -1.16409710166330       -3.07473248373862       -0.94588839967758
H           -2.61254673140093       -2.49171732679729       -0.07196401748975
H            2.78716622382708       -4.15541421982887       -0.00976075449582
25
 energy: 20.797707436763 xtb: 6.6.1 (8d0f1dd)
C            3.21547317305037        1.16913060816449        0.08414561246658
N            2.23491734982200        0.10367916805852        0.04047107730648
C            2.40335069131025       -1.23055150620859        0.03050610918792
N            1.26586503616001       -1.91667934812966        0.00123673951562
C            0.32480628223559       -0.96580266895692       -0.00679068160572
C            0.87364116339458        0.30309745384007        0.01485034598036
C            0.04029858682866        1.48494036438337       -0.00435369480597
O            0.43419515290158        2.63305628407964       -0.00089617872971
N           -1.30187405749541        1.14694446961244       -0.03170945173987
C           -2.27278823440261        2.23655120305108       -0.05085700969075
C           -1.87112047353099       -0.13403934515686       -0.04920080524962
O           -3.07208897562209       -0.26987325471996       -0.07454106390064
N           -1.00882634364185       -1.19978194191288       -0.03758507177829
C           -1.52045296445593       -2.55417903179695       -0.05901798454519
H            3.70239338503676        1.19760627508435        1.06077528255916
H            3.97452572131354        1.01330488794152       -0.68215112278402
H            2.72038645310400        2.12624070001622       -0.08462294716287
H            3.40026041159968       -1.64505262218957        0.04661406622685
H           -1.72377287273416        3.17535689774292       -0.02639095312844
H           -2.88158518159506        2.17767659743281       -0.95300776515073
H           -2.93378746188098        2.16102783684035        0.81237633517405
H           -1.17770691500878       -3.09065776324588        0.82443697323566
H           -1.15604887497403       -3.07131075687529       -0.94540270874017
H           -2.60607522604575       -2.49335269755336       -0.07210108420298
H            2.84822847960306       -4.36830302075781       -0.00975010624314
25
 energy: 20.787346272349 xtb: 6.6.1 (8d0f1dd)
C            3.21574468666901        1.17511929456792        0.08436069970110
N            2.23206950379509        0.11685997713747        0.03986208136343
C            2.41206594569870       -1.22145614548938        0.03090010022523
N            1.26577981421851       -1.90294684313398        0.00141773596479
C            0.32631950643136       -0.95388014395317       -0.00689894776586
C            0.87383489588542        0.31805080182582        0.01586070553672
C            0.03785022699098        1.49252422146989       -0.00412421143918
O            0.42992452846370        2.64503450031872       -0.00138252862337
N           -1.30489257342066        1.15025394603774       -0.03170446762413
C           -2.27497142170979        2.23891578287122       -0.05085506606056
C           -1.87402889716000       -0.13010864260132       -0.04914173042302
O           -3.07497546057975       -0.26658588577770       -0.07435264298678
N           -1.01013410985046       -1.19580566236022       -0.03767252168385
C           -1.51642926399359       -2.55029744517204       -0.05896939450020
H            3.70362945104145        1.20120834253797        1.06107732579491
H            3.97536496386752        1.01569960736745       -0.68150844648120
H            2.72275416814714        2.13268422387505       -0.08495243725891
H            3.40051807309682       -1.63833863004760        0.04612040370844
H           -1.72431302650794        3.17639611541148       -0.02629543025546
H           -2.88239291167484        2.17846480181340       -0.95326861008886
H           -2.93471065745895        2.16168986727349        0.81261212932708
H           -1.17503932845295       -3.08858975632714        0.82458281819106
H           -1.15304344704654       -3.06922940412601       -0.94543147892650
H           -2.60273405761439       -2.49244454053766       -0.07228939761108
H            2.84402369613661       -4.50418959423737       -0.01091277588923
25
 energy: 20.372842876135 xtb: 6.6.1 (8d0f1dd)
C            3.21761915694762        1.18320733626932        0.08488100761198
N            2.22848206294791        0.13592416257620        0.03914380509199
C            2.42837681717183       -1.20280323852782        0.03147163744079
N            1.28863112335053       -1.89146754403703        0.00219656520714
C            0.33270209549942       -0.95262307918410       -0.00685848945657
C            0.87189085048670        0.32657587727628        0.01653085024618
C            0.03885321762059        1.49438673390622       -0.00433660617241
O            0.42624297075115        2.65114290662655       -0.00190567311982
N           -1.30839820903218        1.15145608751839       -0.03182325468843
C           -2.27636115084530        2.23973009183744       -0.05089741010563
C           -1.87318159779779       -0.12607470540122       -0.04904616199986
O           -3.07399892013489       -0.26962565680611       -0.07421158722273
N           -1.00650752453756       -1.19518948055286       -0.03736227849694
C           -1.51330813802322       -2.54774725018250       -0.05883026463459
H            3.70622438688450        1.20532903928351        1.06176315026526
H            3.97688146658043        1.01864702325705       -0.68107565859603
H            2.72849884977852        2.14226941274649       -0.08477406816589
H            3.40811679452651       -1.62609901639090        0.04604798675341
H           -1.72499763068086        3.17665797517492       -0.02640988958078
H           -2.88354427829391        2.17931066283054       -0.95329837399595
H           -2.93578985792976        2.16255135259368        0.81262382952942
H           -1.17391369813060       -3.08815419639766        0.82480272884688
H           -1.15184932223331       -3.06873451833125       -0.94549651251030
H           -2.60044303493681       -2.49112655839817       -0.07222823265799
H            2.78198787500294       -4.61851462894291       -0.01387318739458
25
 energy: 19.974681057569 xtb: 6.6.1 (8d0f1dd)
C            3.22015857016553        1.19141064580192        0.08504809209225
N            2.22829213626131        0.15138327018533        0.03865973026731
C            2.44334186789181       -1.18350753692559        0.03218801470488
N            1.32132104397064       -1.88502469384404        0.00355339184202
C            0.34074522164701       -0.96153440333419       -0.00669239782025
C            0.86965346540791        0.32460150375201        0.01647373598440
C            0.04222429345581        1.49110793845233       -0.00425267032749
O            0.42467179283547        2.64947195688484       -0.00176313518121
N           -1.31039598075477        1.15058497458999       -0.03179151132429
C           -2.27654263164080        2.23896229825203       -0.05088993857552
C           -1.86847104862464       -0.12398466026571       -0.04907013156322
O           -3.06919868676593       -0.27695962843467       -0.07441977267760
N           -0.99928509562343       -1.19747615146154       -0.03698382155247
C           -1.51198423810805       -2.54771282623756       -0.05884925515896
H            3.70809284863468        1.20995045830737        1.06220879670651
H            3.97773639472936        1.02274980412392       -0.68156912315826
H            2.73312762308621        2.15118924639008       -0.08462123235743
H            3.41885854703255       -1.61655410670058        0.04658908994648
H           -1.72490333564439        3.17594978609072       -0.02630079383582
H           -2.88422018704765        2.17999446818924       -0.95337359716120
H           -2.93661728545025        2.16314033302526        0.81257770343295
H           -1.17415743441369       -3.08913357659698        0.82489694534058
H           -1.15207316987014       -3.06960870633237       -0.94575779636313
H           -2.59933772802856       -2.48956151990639       -0.07226289384062
H            2.69117732182649       -4.67041008526139       -0.01656351722533
25
 energy: 19.845046421615 xtb: 6.6.1 (8d0f1dd)
C            3.22174016951609        1.19489309223368        0.08523966325149
N            2.23109023463745        0.15458473452601        0.03866417702431
C            2.44727572512210       -1.17640144963021        0.03241193611208
N            1.33680965477697       -1.88498745050026        0.00397419315979
C            0.34439099664264       -0.96914780864571       -0.00672820938564
C            0.86898864943986        0.31871391052874        0.01574576263370
C            0.04427976521979        1.48812610782442       -0.00445926007734
O            0.42520468232012        2.64544779829543       -0.00175467241841
N           -1.31036897061486        1.14964931620663       -0.03181630002596
C           -2.27638742125001        2.23801912020858       -0.05091348516269
C           -1.86509126498334       -0.12429462541692       -0.04899787707068
O           -3.06579451899899       -0.28120233751774       -0.07436562970611
N           -0.99507669900408       -1.19900645531807       -0.03684606700980
C           -1.51233105606015       -2.54893176346979       -0.05878945400857
H            3.70873092697535        1.21174139250216        1.06256093075306
H            3.97814606248112        1.02484416054346       -0.68167759051580
H            2.73442241429416        2.15438391587731       -0.08424451213694
H            3.42379523859907       -1.61401803702983        0.04686762451048
H           -1.72496242073444        3.17537256456596       -0.02643142385445
H           -2.88454470152902        2.17965443787509       -0.95337778175016
H           -2.93679948839361        2.16294030680265        0.81263464034537
H           -1.17455745584622       -3.08999479465666        0.82495244489400
H           -1.15269321709890       -3.07047760881935       -0.94575588682815
H           -2.59935866537400       -2.48918033669939       -0.07206262989354
H            2.64530566483536       -4.66169940154216       -0.01779668064548
25
 energy: 19.815057455607 xtb: 6.6.1 (8d0f1dd)
C            3.22191713915300        1.19546613936300        0.08504491882817
N            2.23284940662179        0.15338382340374        0.03877374331592
C            2.44658229346126       -1.17596863265442        0.03260517457074
N            1.33904673830068       -1.88624856108462        0.00424117640936
C            0.34489242625719       -0.97143576729051       -0.00669130358838
C            0.86887464686369        0.31598953773415        0.01549691052549
C            0.04463405642806        1.48728005162045       -0.00424025756279
O            0.42586214894971        2.64368324191897       -0.00139977955773
N           -1.30997194618401        1.14940383388965       -0.03172844806478
C           -2.27613908516479        2.23782686328260       -0.05087364881387
C           -1.86433011052157       -0.12498317591029       -0.04904414337352
O           -3.06504653180302       -0.28182428446183       -0.07450972029351
N           -0.99434659093583       -1.19911723986907       -0.03689407239162
C           -1.51279444300599       -2.54960057225460       -0.05888709402299
H            3.70859945191601        1.21212648220174        1.06235973666053
H            3.97798611391369        1.02528406512262       -0.68197124685654
H            2.73359462255582        2.15423726804169       -0.08446376286906
H            3.42461328059547       -1.61361429072137        0.04707100307205
H           -1.72469386043426        3.17522498561045       -0.02628607207844
H           -2.88424901071062        2.17961096136345       -0.95341123753408
H           -2.93666907476804        2.16282295861900        0.81262416760247
H           -1.17477147909655       -3.09018623082728        0.82486363137955
H           -1.15282097797786       -3.07063431317458       -0.94583919052437
H           -2.59956498615464       -2.48930833038873       -0.07220149066636
H            2.63816007671326       -4.65039002479015       -0.01760508197170
25
 energy: 19.809831352193 xtb: 6.6.1 (8d0f1dd)
C            3.22203066837838        1.19544387539166        0.08518913593534
N            2.23344987785931        0.15274535297430        0.03879776140162
C            2.44597961616325       -1.17621928304191        0.03252198865783
N            1.33873883617015       -1.88665279077638        0.00407855097774
C            0.34484505816034       -0.97152959852999       -0.00677262422971
C            0.86878663664306        0.31559422298526        0.01527938235215
C            0.04451054775586        1.48737056676203       -0.00443040860286
O            0.42603027302684        2.64351071612038       -0.00157451431652
N           -1.30984686784163        1.14948546751439       -0.03179188088401
C           -2.27622355426116        2.23780283598986       -0.05090146089804
C           -1.86434181645767       -0.12529567022082       -0.04899258083745
O           -3.06506843480607       -0.28161621941894       -0.07436951412772
N           -0.99444077153062       -1.19883676028350       -0.03691012048557
C           -1.51289135339607       -2.54973385965219       -0.05880687157173
H            3.70865167187164        1.21193040968068        1.06252184255732
H            3.97817828029264        1.02528026210137       -0.68174641419522
H            2.73353479843522        2.15405814216039       -0.08426010978098
H            3.42453097000862       -1.61350432349243        0.04698015016922
H           -1.72488224676419        3.17525732877193       -0.02641337497106
H           -2.88439002248008        2.17943942937493       -0.95337429846793
H           -2.93665315551386        2.16274484185760        0.81265068244171
H           -1.17463476539109       -3.09008065107244        0.82494052429137
H           -1.15280977143575       -3.07058054074957       -0.94575552996584
H           -2.59958310051211       -2.48940214202869       -0.07204856950636
H            2.63871293059745       -4.64818282367392       -0.01777783374869
