25
 energy: -42.540398482655 xtb: 6.6.1 (8d0f1dd)
C            3.21685327169976        1.17396539554431        0.08504525314552
N            2.26440708126934        0.09219872076680        0.03463555085407
C            2.52922870868318       -1.22524985122519        0.03671649361201
N            1.44152401157251       -1.97960544450298        0.00796846695996
C            0.39680904580738       -1.10154318316618       -0.00946664133803
C            0.89018041916455        0.20033034701918        0.01201619287618
C            0.07594808763995        1.38584136747654       -0.00310648000257
O            0.47067933940072        2.54015700024111       -0.00008765564363
N           -1.28630050889729        1.07807962136320       -0.03077503987112
C           -2.24095749967105        2.17931635490381       -0.05109796141861
C           -1.83106480144247       -0.18958876191987       -0.04820290668970
O           -3.03099811780718       -0.35400963938285       -0.07364164546755
N           -0.95524518451157       -1.27907787250621       -0.03726634892813
C           -1.50487167267266       -2.61580553689261       -0.05969699357892
H            3.70542146813965        1.20636615616320        1.06121225312059
H            3.98061893398780        1.03669050519256       -0.68169587072552
H            2.70109349658390        2.12016855764256       -0.08025668169212
H            3.52683425569350       -1.61384831847229        0.04830730363909
H           -1.68360908861399        3.11432015788524       -0.02652805117525
H           -2.84689789221447        2.12699893890104       -0.95490951909074
H           -2.90119274313296        2.11131583056048        0.81253950463782
H           -1.18551222579551       -3.15927307348800        0.82904579404423
H           -1.16251714485949       -3.13888814160463       -0.95209358870867
H           -2.58678702796937       -2.52406258917646       -0.07320775611729
H            2.07740428716853       -3.49202758308730       -0.01595105742881
