72
 energy: -98.630635762150 gnorm: 0.554842196650 xtb: 6.6.1 (8d0f1dd)
N           -1.76193005640000        2.68809039490000        2.16561075690000
C           -1.81392228370000        2.09859410250000        1.08133793040000
C           -2.99818303880000        1.90878052960000        0.19426551210000
C           -3.47420768020000        0.46288616610000        0.29016935460000
C           -4.43996898430000       -0.00330483290000       -0.60559694700000
C           -4.90734960440000       -1.30341158230000       -0.54901311400000
O           -5.84189486830000       -1.83205458650000       -1.36894264620000
C           -6.48435378860000       -0.99877349280000       -2.30440982770000
C           -4.39114454530000       -2.19046899320000        0.43093961430000
O           -4.89992910430000       -3.44082021600000        0.40772263020000
C           -4.51112850180000       -4.35186622960000        1.40912255350000
C           -3.43511326170000       -1.72258510870000        1.31355738540000
C           -2.98111367860000       -0.40866204850000        1.24322743660000
C           -2.47045251030000        2.18397043220000       -1.23587677620000
C           -1.47571987170000        1.11081679340000       -1.70013674360000
C           -0.19215057170000        1.12223456150000       -0.94811234320000
N            0.48695402650000        0.04747564810000       -0.62908980020000
C            1.87021822860000        0.13519251890000       -0.21605257130000
C            2.81941785860000       -0.32581183060000       -1.33941966640000
C            4.24392292760000       -0.12352493640000       -0.90195514160000
C            4.88264146450000        1.08133466660000       -1.12134495740000
C            6.18800960400000        1.27795368180000       -0.69309369340000
C            6.87185053750000        0.27280297160000       -0.03030627110000
O            8.13841043760000        0.35481793720000        0.42933565920000
C            8.86463891520000        1.54224916140000        0.21315214960000
C            6.22121044210000       -0.96639385400000        0.20340198270000
O            6.96375871210000       -1.89293228770000        0.85193771310000
C            6.41260924760000       -3.16536282220000        1.08684883300000
C            4.91989947960000       -1.14163074550000       -0.22961125380000
C           -0.10277250520000       -1.27197772050000       -0.66216947800000
C           -4.18174943190000        2.86042035090000        0.54188400490000
C           -4.77882145680000        2.52266043580000        1.90521452570000
C           -3.79996368070000        4.33696620220000        0.49436836840000
H           -4.84608442540000        0.66829209330000       -1.34343626760000
H           -6.99017034260000       -0.16054920410000       -1.81549139590000
H           -7.22467198430000       -1.62792857270000       -2.79434799360000
H           -5.78339447990000       -0.61831877160000       -3.05508840310000
H           -4.75055450390000       -3.97602886010000        2.40832690300000
H           -5.08399757130000       -5.25695202810000        1.21797550200000
H           -3.44224443500000       -4.58235700430000        1.35091501830000
H           -3.03861563620000       -2.36743958090000        2.08081299180000
H           -2.25950307550000       -0.07392022930000        1.97347578210000
H           -3.30632486840000        2.20436494440000       -1.93224077560000
H           -1.99134820780000        3.16338780600000       -1.26219189450000
H           -1.95849599210000        0.13567224620000       -1.66062781910000
H           -1.22169907090000        1.32440625770000       -2.74469301900000
H           -0.90529018360000        1.64008053400000        0.56419419610000
H            0.37392199710000        2.04746758030000       -0.98604251350000
H            2.02536557410000       -0.48713025860000        0.66815008310000
H            2.11135775340000        1.16773970750000        0.04364891770000
H            2.61746873890000        0.26380064090000       -2.23549587270000
H            2.63911137330000       -1.37668388540000       -1.56711401720000
H            4.37572704210000        1.87855248040000       -1.64463939550000
H            6.66450184750000        2.22434101050000       -0.88882542020000
H            8.39416253530000        2.39709349260000        0.70917481150000
H            8.97735914890000        1.75517488520000       -0.85432591110000
H            9.84552877080000        1.36775315300000        0.65092718820000
H            7.19385207620000       -3.73412174010000        1.58723525720000
H            5.53409704130000       -3.11039713520000        1.73879122130000
H            6.14409508610000       -3.66702745220000        0.15148993930000
H            4.41812701060000       -2.08268422800000       -0.06578100610000
H           -0.25311068840000       -1.60653207460000       -1.68978132320000
H           -1.06636384320000       -1.27297341890000       -0.14547828480000
H            0.56056938020000       -1.97400688730000       -0.16416637320000
H           -4.94857957520000        2.68185888330000       -0.21896757860000
H           -4.05248601510000        2.70315952590000        2.69098665370000
H           -5.09432861870000        1.48362296430000        1.94857507950000
H           -5.64627851960000        3.15125487400000        2.08638966200000
H           -3.01677883380000        4.55459839510000        1.21465957680000
H           -3.47279210760000        4.64306305210000       -0.49585519760000
H           -4.66891364860000        4.93538561190000        0.75379582870000
H           -0.88837560850000        2.78045544800000        2.66936551290000
