25
 energy: -42.116026668299 gnorm: 0.008794892694 xtb: 6.6.1 (8d0f1dd)
C            3.37133727960501        0.59408330909427        0.06632989002664
N            3.54887724235301       -0.83467316456640       -0.01680397766332
C            2.68077860654186       -1.79015812593006       -0.04253727890496
N            1.35619918524931       -1.78093034119591       -0.02639079842941
C            0.41809620166344       -0.74576422616931       -0.02058380214929
C            0.76990069893295        0.56271069765389       -0.04298027298427
C           -0.14914847168726        1.64918741102696       -0.03773045235054
O            0.12208251547794        2.82893816019728       -0.04645182368005
N           -1.48993453941066        1.20824534806526       -0.02061330250055
C           -2.53882007960540        2.20882658986772       -0.01648393942344
C           -1.90127638694565       -0.10297271245869       -0.00140286984663
O           -3.07092698824109       -0.40080419645523        0.01651282596594
N           -0.90843460071965       -1.09377265910507       -0.00167373818677
C           -1.35729612076606       -2.47189058482523        0.02046748992743
H            3.71286764352266        0.99221816763795        1.02123130197321
H            3.84143801645357        1.10888858669085       -0.77033299742112
H            2.17926397682753        0.78605469283757        0.00162802648295
H            4.53009439624578       -1.11897757926695       -0.04549624065183
H           -2.06992537722845        3.19218456573909       -0.01321635106899
H           -3.16876366252650        2.09379106522050       -0.90086730248888
H           -3.16797915497290        2.08562756598071        0.86722882455318
H           -1.00497855654736       -2.98578529667489        0.91708653487479
H           -1.04185101031057       -3.00320252529687       -0.87989995753807
H           -2.44857504843940       -2.45261874184824        0.04192385849669
H            0.94740574862784       -2.71096746461894       -0.03777202911259
