25
 energy: 122.790683556747 xtb: 6.6.1 (8d0f1dd)
C            3.18903882793432        1.12582859634953        0.15259894097250
N            2.25755690458711        0.05074011377800        0.08123585153186
C            2.57402191217163       -1.26297683553723        0.05063481658851
N            1.43268904363748       -1.98328374130792       -0.02607545410068
C            0.39069397320437       -1.08881385035308       -0.02224693844596
C            0.85615404593381        0.26393877424552        0.02606744385573
C           -0.02206289019230        1.52418231511600        0.01006206399163
O           -0.06502372900465        2.80832717725017        0.02730884824052
N           -1.35121017479740        0.98358611514332       -0.06134700162460
C           -2.23431624089925        2.06477887830257        0.01650291202087
C           -1.84032437357239       -0.34234653536980       -0.06706314648484
O           -3.02500510976975       -0.59146675916109       -0.04106603408071
N           -0.92516323089640       -1.40886265636043       -0.06495698468185
C           -1.39706708254135       -2.78130875706149       -0.11453115961576
H            3.50191783721702        1.30453823974043        1.18579976549536
H            4.07328959265924        0.92574487111941       -0.45732974657890
H            2.67063962979578        2.00096406460117       -0.23000584834306
H            3.55935962189943       -1.68570302454237        0.02930378885215
H           -1.84304722784925        4.40716566153591       -0.64263752520058
H           -3.24770180807332        1.81122590837406        0.00266035894590
H           -1.92268831690921        2.86430098884641        0.68378810231180
H           -1.04719802621741       -3.36038278823338        0.74357019522742
H           -1.07392071610134       -3.27795147697918       -1.03421634733879
H           -2.48793971629609       -2.76441914665268       -0.09074742011179
H            1.40793032453439       -2.99390194329835       -0.06675656305226
