25
 energy: 79.994933615719 xtb: 6.6.1 (8d0f1dd)
C            3.19560010593670        1.13467734470329        0.14390190822487
N            2.26575354663780        0.05747410665308        0.06401262662638
C            2.58896626373162       -1.28809990507309        0.05433630322357
N            1.41013475336449       -1.97644159816156       -0.02826849666747
C            0.38645913780502       -1.07604647019016       -0.01907411035923
C            0.86643581537048        0.25756991983533        0.03772228403903
C           -0.01910570790994        1.49636439989447        0.01142477589442
O            0.02683986768044        2.75781843157776        0.03674593432879
N           -1.35185140999503        1.03511535442076       -0.11318207774492
C           -2.21001338990752        2.28391796857904       -0.07995182903406
C           -1.85644127843028       -0.27759910960659       -0.07938598434826
O           -3.04166476134287       -0.53329328511090       -0.04593066348789
N           -0.94392965354222       -1.37082806169287       -0.05410382321125
C           -1.41612481737886       -2.74463576968395       -0.10562340460051
H            3.54617538021627        1.28793299737734        1.17343976689094
H            4.06196964822849        0.95154563968993       -0.50075674435242
H            2.66619443235032        2.02162791252455       -0.20137087776566
H            3.56891724895109       -1.71807680247802        0.01450609578926
H           -1.86701889530207        3.80771638813935       -0.61984152250967
H           -3.19667296985235        1.90355666283912       -0.24876470420080
H           -2.12980488357009        2.76756146860121        0.88202067472647
H           -1.07209978714311       -3.32448208953781        0.75679782048810
H           -1.08621716045973       -3.25023102405485       -1.01997297368509
H           -2.50546114526584       -2.72692326180896       -0.09079000899251
H            1.37605566096860       -2.98726796931202       -0.06726397408263
