25
 energy: 132.200366854892 xtb: 6.6.1 (8d0f1dd)
C            3.16090397297884        1.06405807046035        0.14054210606909
N            2.28625933266282       -0.06955850877809        0.06840704793602
C            2.61567196705750       -1.36545843504515        0.02450985368404
N            1.49307230739038       -2.12265543365381       -0.03045236792700
C            0.42039308543181       -1.28869729902652       -0.01651968675638
C            0.90190295418078        0.02422592962879        0.04415420662758
C            0.13938361576144        1.18162639787098        0.05334810309282
O           -0.97354835327119        4.23699964919884       -0.04145783691375
N           -1.23042283054155        0.86951880979261        0.00897816817574
C           -2.11971348938451        1.86205148378890        0.03616063542864
C           -1.78997837190713       -0.46405610102195       -0.03148592263958
O           -2.98458045582858       -0.66888295259674       -0.04561386503397
N           -0.91030974937990       -1.53999813959426       -0.05185349216977
C           -1.41003605729257       -2.90082544937194       -0.12665894984126
H            3.47413531446075        1.24028170254771        1.17351328247193
H            4.04781832563418        0.89049525340923       -0.47312758105102
H            2.60522202026951        1.93442813844947       -0.20709347574737
H            3.60763402364232       -1.76365882353392        0.02534584585251
H           -1.23322945530947        5.12598751678358       -0.20463044113891
H           -3.17184287171785        1.59202821262754       -0.13728542402832
H           -1.72527794642754        2.92584465531161        0.04026467665332
H           -1.05207279777948       -3.49060038899243        0.71971924425841
H           -1.09651564858376       -3.37245811879560       -1.05997048838682
H           -2.49684705943306       -2.86208150957476       -0.09700554627565
H            1.47191465129277       -3.12862983793328       -0.07020271712756
