25
 energy: 52.368411886989 xtb: 6.6.1 (8d0f1dd)
C            3.20065626834243        1.13782766069415        0.13960201829008
N            2.26838208383117        0.05995104493863        0.05551926540610
C            2.59241338310532       -1.29366229570714        0.04964198543353
N            1.40351958236336       -1.97432805845417       -0.02595019372301
C            0.38172627897250       -1.07374791842246       -0.01981974279340
C            0.86786836341877        0.25205724440046        0.03978414820077
C           -0.01869420162677        1.47525591294199       -0.00818324673690
O            0.07440436669547        2.71959704240413        0.03654581833476
N           -1.35210239143700        1.04808373424979       -0.12623057756240
C           -2.20214439793791        2.33007193671405       -0.10986090616479
C           -1.86048054069053       -0.25849124993873       -0.07910932351485
O           -3.04706770026052       -0.51215985717879       -0.04659600254479
N           -0.94986882092769       -1.35699714240913       -0.05338162202985
C           -1.42575801074941       -2.72881641480615       -0.10090797552288
H            3.56865793784184        1.27620598976318        1.16505847605448
H            4.05696994908492        0.96163139282907       -0.52113888685959
H            2.66698265258467        2.03052801879485       -0.18491014494335
H            3.57166852850534       -1.72864382775405        0.01545497142317
H           -1.83726159378163        3.61968917891449       -0.59339742088884
H           -3.17168542985292        1.92164627229727       -0.35198642758226
H           -2.22645617258128        2.70599798370348        0.90795745765110
H           -1.08612556904049       -3.30618045027120        0.76522554404403
H           -1.09475323767588       -3.23832052410160       -1.01253959420322
H           -2.51433972257565       -2.70396243365675       -0.08985758789792
H            1.36329493426712       -2.98463087039938       -0.06531759253700
