25
 energy: 135.442523142221 xtb: 6.6.1 (8d0f1dd)
C            3.16787648693622        1.07177279319691        0.14183180444770
N            2.27268523499961       -0.04145510360239        0.05898555531243
C            2.60335645717854       -1.34279062690124        0.02804334377169
N            1.47496492875740       -2.08632813250936       -0.02698624577870
C            0.41287509260956       -1.24746747582600       -0.01772492872254
C            0.88750515207976        0.07969099407002        0.04298702342696
C            0.11358459987348        1.24449536093511        0.07850960907066
O           -0.98843844114998        4.12467328228745       -0.06722279050143
N           -1.26044874149243        0.85942442807820        0.02905216965044
C           -2.19939787131593        1.79238442173345        0.02684633012074
C           -1.79585725819226       -0.47583945895506       -0.02523462607039
O           -2.99166432100291       -0.67431380873483       -0.04565175731239
N           -0.90998630790544       -1.53136378431997       -0.04667010555245
C           -1.39703116769870       -2.89047780287662       -0.12527692699758
H            3.48837113692262        1.25326295928463        1.17161642584948
H            4.04779624050345        0.90899997285639       -0.48035123322979
H            2.62585718403360        1.95191220063633       -0.19669430968176
H            3.60261224742074       -1.72720532785670        0.02206034612035
H           -1.15532888107049        5.11921125838945       -0.14245830112702
H           -3.25123393241960        1.54907726645140       -0.02393389705695
H           -1.81246712389923        2.84036475213596       -0.02580404193658
H           -1.02602406561276       -3.47303943934904        0.71860204191930
H           -1.08683563302549       -3.36139103424203       -1.06037631680735
H           -2.48362611681222       -2.85661331337415       -0.09204011199578
H            1.47019517546133       -3.09301416081938       -0.07104257513476
