25
 energy: 5.040275571882 xtb: 6.6.1 (8d0f1dd)
C            3.22727178967225        1.16198698861607        0.11119164151832
N            2.28844254839259        0.09199022156170        0.04144498428387
C            2.59846032327531       -1.26026718688456        0.03678974549490
N            1.40581622020513       -1.94851200916539       -0.01033778934637
C            0.39409814402749       -1.05425649448266       -0.01566324585209
C            0.89383770209217        0.26145693966692        0.02082911099461
C            0.07193474229546        1.44739255420210        0.01542442226445
O            0.29156035082955        2.66918440745894        0.00688617403372
N           -1.30062781740205        1.05416464525933       -0.04599515074191
C           -2.15720326928919        2.26017016654920       -0.08920519328207
C           -1.83599573740483       -0.21480124196885       -0.04259834919103
O           -3.03121012290554       -0.43253679997239       -0.05528538782132
N           -0.94258184146731       -1.31878274563977       -0.04113543719970
C           -1.45142738646823       -2.67613519899807       -0.07817218324756
H            3.65907070375381        1.24414560556468        1.11403186501744
H            4.03316590271208        1.00584721636800       -0.61144633393735
H            2.68185905615384        2.07223352878934       -0.12898774917926
H            3.57673788388284       -1.68277198319773        0.03963119071428
H           -1.64986842490182        3.26177770448651       -0.34547547256750
H           -2.99699880861236        1.98963851446423       -0.73127370881525
H           -2.60530176740374        2.38040551980444        0.88970355232870
H           -1.13564431861140       -3.24305199351716        0.80256085215601
H           -1.12252143233413       -3.20015924648691       -0.98073203700370
H           -2.53873236646927       -2.61576867601603       -0.08371786855544
H            1.34809171860903       -2.95620846824273       -0.03422984297264
