25
 energy: 130.235350421794 xtb: 6.6.1 (8d0f1dd)
C            3.16104422611601        1.06511139453472        0.14008667554453
N            2.27879469853645       -0.06345944489812        0.06795531088825
C            2.61425125255161       -1.36048412354954        0.02450117575635
N            1.49537633627161       -2.12076304589157       -0.02868344916116
C            0.42129205978165       -1.29299350052302       -0.01316777687874
C            0.89192489770599        0.02973532022304        0.05056784166445
C            0.08708323380592        1.15745721038620        0.05407566174265
O           -0.89533322856853        4.35742361892062       -0.01529789060958
N           -1.25784857546701        0.84361214504934        0.01330228352221
C           -2.12666038368674        1.84824627201700        0.01013018962314
C           -1.80671824944741       -0.48592462787988       -0.02709253816712
O           -3.00175953357738       -0.68124247975375       -0.04356199158426
N           -0.91069531592493       -1.54923581486796       -0.05111932681986
C           -1.40945072428721       -2.90776313606946       -0.12632096451237
H            3.47650089859112        1.24255146146126        1.17044717276958
H            4.04343103241624        0.89990572074813       -0.47758966012812
H            2.61258875861182        1.94044732203809       -0.20684407095911
H            3.61166646924621       -1.74359669639136        0.02662890579207
H           -1.33589660454632        5.17774003100113       -0.23007775582511
H           -3.18000431742874        1.62032205286033       -0.02053228004501
H           -1.70465377710231        2.87474896336404        0.01474627168198
H           -1.05045168813963       -3.49114418492928        0.72335390069942
H           -1.09434802896560       -3.37742756020073       -1.06034220899790
H           -2.49689610064462       -2.86531495373779       -0.09764459807918
H            1.48897696912392       -3.12892315516742       -0.07048696572244
