25
 energy: -1.113636282148 xtb: 6.6.1 (8d0f1dd)
C            3.23334191068155        1.16852313868895        0.10456675674749
N            2.29515134841296        0.10016214213567        0.04026088746093
C            2.60064088140239       -1.24972821506100        0.03374136041427
N            1.41250040697979       -1.94330138615376       -0.00797871903086
C            0.39808174203703       -1.05433611887393       -0.01423798323888
C            0.90474942263142        0.25181855043146        0.01816596596994
C            0.08687216911166        1.42709773842189        0.01317315251412
O            0.35889501613745        2.63518292384684        0.00195181111629
N           -1.28700930581217        1.04880286200612       -0.03107980175150
C           -2.16978977615451        2.22220969451187       -0.07074745347535
C           -1.82950696764462       -0.20961332443268       -0.03873107401610
O           -3.02624406159993       -0.41497614131397       -0.06038295430948
N           -0.93988919303756       -1.31274922194564       -0.03898613012279
C           -1.45777586282027       -2.66505304524618       -0.07068241352257
H            3.67939837380943        1.23552009135992        1.10144010441131
H            4.02691451481886        1.01717034093246       -0.63142953701832
H            2.68780108334128        2.08390523421625       -0.11424456453143
H            3.57784052415533       -1.66933993261952        0.03998115419567
H           -1.63827088657611        3.20450912096475       -0.23484444836779
H           -2.93925069452945        2.01898577607725       -0.81274413060131
H           -2.69851098483758        2.28197757863325        0.87156372902632
H           -1.14622139423690       -3.22692965913970        0.81410387871769
H           -1.13066714597331       -3.19323934194717       -0.97072624235953
H           -2.54464615698598       -2.59540989028296       -0.07832451430445
H            1.35535074231010       -2.94997851239354       -0.02835690884367
