25
 energy: 108.199991938776 xtb: 6.6.1 (8d0f1dd)
C            5.49416999257945        1.07392985317339        0.20401505469026
N            1.95271246762308        0.34574984477791        0.01591518911454
C            2.34948088328046       -0.95422530514664        0.00709498401199
N            1.23260356324116       -1.74523245152725       -0.01649272271928
C            0.13863775525745       -0.95110158578736       -0.03110974227869
C            0.56831908803015        0.36866055432984       -0.02413130553426
C           -0.34497185479223        1.45606804082990       -0.03363237822794
O           -0.07045483870816        2.64648041094935       -0.01941371113643
N           -1.69313913121188        1.00716041401862       -0.06039381259180
C           -2.73234704096741        2.02755968517998       -0.08203025788291
C           -2.14586006701202       -0.28100911902213       -0.06734296793396
O           -3.32370968147319       -0.56075052368312       -0.08726167088761
N           -1.17516982116021       -1.30360085424814       -0.05072313923042
C           -1.61369811586615       -2.68273682660805       -0.05220260201636
H            5.97669917595838        1.41799334063225        1.14267162365781
H            6.18928208325385        1.33143568180586       -0.62207471982425
H            2.54789161565923        1.15242493524185        0.01291488590715
H            3.35952914440657       -1.28546217425661        0.01151290189480
H           -2.24396187534856        2.99988597023169       -0.07712595063780
H           -3.34508746067463        1.91552218643687       -0.97661938042252
H           -3.37441467469166        1.92392558051354        0.79240438243921
H           -1.27930249047184       -3.20129210231462        0.84791670354753
H           -1.25689931296183       -3.20776288080119       -0.94034907674158
H           -2.70383540550341       -2.67323880033447       -0.06487896795774
H            1.25477118085328       -2.75217250605653       -0.02349031944810
