25
 energy: 109.037420512259 xtb: 6.6.1 (8d0f1dd)
C            5.19368467179236        1.20576015501671        0.21390139009071
N            1.98278800355954        0.35721919204432       -0.03132435584769
C            2.33735353404885       -0.95464839303811       -0.00460090705894
N            1.22702997617855       -1.75547428060088       -0.01319930704119
C            0.13620462511037       -0.95788058265164       -0.02236315164774
C            0.58401892353158        0.36159409836669       -0.03308657928571
C           -0.34341207877886        1.45400847938948       -0.05168929762610
O           -0.05728270847468        2.63735320194722       -0.03620447604766
N           -1.69139362979393        1.01237576206079       -0.06819224488910
C           -2.74779948362715        2.01822352260480       -0.08679992681394
C           -2.14098313341640       -0.27825489264594       -0.06493133796324
O           -3.32064454220377       -0.54771931055880       -0.09288775196881
N           -1.18129770665512       -1.30511943485042       -0.03199314196849
C           -1.62136684930013       -2.68641053636897       -0.04839976135234
H            5.77024796713311        1.44406656864110        1.13531463323443
H            5.91131002680298        1.28530092053456       -0.61357754837284
H            2.71996807051864        1.14057949215544        0.02540526683124
H            3.33942767263014       -1.29703162064930        0.00557012512403
H           -2.28794414017733        3.00418342208777       -0.08693190671652
H           -3.36393935127262        1.89038179644629       -0.97819176252767
H           -3.38584840955632        1.90517615531607        0.79042550336447
H           -1.28100486624679       -3.21020905305114        0.84703013637314
H           -1.26325096464356       -3.20497174070452       -0.94038900572473
H           -2.71068859405695       -2.68098688054525       -0.06357889378551
H            1.24480094787102       -2.76298422894282       -0.02224599144362
