25
 energy: 112.457623905980 xtb: 6.6.1 (8d0f1dd)
C            3.30422353643124        1.15407909603886        0.12203538512087
N            2.35178268973026        0.06524696283010        0.07239801802445
C            2.70870132320374       -1.21658093137059        0.06789263090718
N            1.60855917780471       -1.99563579789769        0.07227941457918
C            0.44972109350745       -1.16564539146978        0.06295708099972
C            0.98005791794322        0.16275909940378        0.08333935940027
C            0.15340394369526        1.38608543537521        0.04393934103187
O            0.68545861194070        2.49558978572221       -0.07468774827153
N           -1.21271738019219        1.11059735837760        0.12013485248933
C           -2.06615839212267        2.26714972547052        0.16489241625169
C           -3.41259026802004        0.52974681297495       -1.24050319337112
O           -3.96832498065269       -0.39296451257745       -0.88052999673941
N           -0.78058021887275       -1.47323091753293        0.02589057288132
C           -1.29728557583149       -2.79375348053776        0.03367154804110
H            3.79487239358301        1.18061728384167        1.09868474151239
H            4.06768590482918        1.01711195970814       -0.64683148983814
H            2.77979806792759        2.09709506941015       -0.03782244148280
H            3.71852020258365       -1.58080958184008        0.07555598056812
H           -1.78808268390936        3.10047028524048       -0.49586662026355
H           -3.11589509759394        2.04362834196909       -0.09404283858858
H           -1.97691918855292        2.64588335180803        1.17833136469962
H           -0.90706019425724       -3.34524117879384        0.89150033132782
H           -1.02936819653122       -3.32723773083664       -0.88607513483051
H           -2.38675646989261       -2.72693723512568        0.09499815100863
H            1.59816232228993       -3.00125795485913        0.04617891791433
