25
 energy: 102.905815056570 xtb: 6.6.1 (8d0f1dd)
C            3.32337545649846        1.16458166561583        0.08671759717821
N            2.37852448697912        0.07462948657757        0.05929600612373
C            2.71749777209953       -1.20713568144266        0.04585566014668
N            1.60328228366744       -1.96515127474802        0.04980358318168
C            0.46058159685079       -1.11611608004761        0.06735124815411
C            1.02035484861847        0.19455223830381        0.06988039640444
C            0.26541086912177        1.45882877464766        0.05798028564174
O            0.82772293807259        2.56419046123399       -0.05400460955874
N           -1.01589335154312        1.22271606170197        0.26056585235616
C           -2.01624240564539        2.21692284692523        0.17570210764308
C           -4.24236244290901        0.37418959412616       -1.09550303155401
O           -4.03527469280183       -0.73615181670312       -1.00172326140761
N           -0.77560277047540       -1.42666732615827        0.07831313021866
C           -1.27984957389131       -2.76234352126726        0.06669930887953
H            3.82026826718296        1.21038763869597        1.05753133236629
H            4.07642394265971        1.03094092679806       -0.69115323674383
H            2.77137527196130        2.09592965031943       -0.07575622666336
H            3.72199606160975       -1.58017859030113        0.02599161685331
H           -1.72003718550625        3.11679349757696       -0.37078257830106
H           -2.88626156147368        1.76217544754492       -0.31560241386503
H           -2.30026291173052        2.50829355940437        1.18621062477195
H           -0.92594718170308       -3.35798346262134        0.91843011572825
H           -1.01269508965903       -3.28784150445745       -0.85954441957719
H           -2.37009109316921       -2.69494362585879        0.11675316727973
H            1.57392279930049       -2.96970097072957        0.03136445007043
