25
 energy: 105.187250942603 xtb: 6.6.1 (8d0f1dd)
C            3.31477060385889        1.16222945713056        0.09139807128925
N            2.36018210411786        0.07986997141758        0.07349419924677
C            2.70113121256744       -1.19544360191422        0.05513735578974
N            1.60350419907094       -1.96694038855316        0.05300316558681
C            0.45628944166511       -1.13003000864503        0.07310280667667
C            0.99626109546581        0.19379003303008        0.08698657268030
C            0.22472627468385        1.43033495469714        0.06311195489214
O            0.76042558578248        2.54470308402533       -0.07294549301560
N           -1.08127553497343        1.16269182735777        0.20506829438205
C           -2.02446950135126        2.22598000569202        0.19570576643001
C           -3.96950262759808        0.42457633742597       -1.25590530862861
O           -4.21597801549204       -0.64941954701762       -1.00389668454850
N           -0.76415723555651       -1.46398359488588        0.09943308726159
C           -1.26818310605835       -2.79869868736245        0.05841341575004
H            3.80942569020454        1.21452897408423        1.06370127762996
H            4.07096366417068        1.02016685651076       -0.68215775579877
H            2.77926409213148        2.09710436125194       -0.08029174380619
H            3.71529875905944       -1.54705613708502        0.05445419897606
H           -1.66572007360676        3.11573916118930       -0.34944257295553
H           -2.95250418703472        1.88676461458372       -0.30671274883915
H           -2.24153080711742        2.49599064456168        1.24821643738123
H           -0.95014824243200       -3.40106371072199        0.91258101209712
H           -1.00516781580001       -3.33189824714685       -0.86177645841592
H           -2.34830314854970       -2.71328411099422        0.10727374055107
H            1.61335201143636       -2.97400968749146        0.04253409607604
