25
 energy: 111.201025164034 xtb: 6.6.1 (8d0f1dd)
C            3.31031975189247        1.15237188883729        0.11535305088777
N            2.35764676883072        0.06346182656826        0.07246664284100
C            2.70890847384465       -1.21608693499596        0.06730485178063
N            1.60889350085723       -1.98919052926697        0.07587267875748
C            0.45198319468327       -1.16099366981909        0.06882989185966
C            0.98535384836885        0.16987823215956        0.08508837464846
C            0.17824016661239        1.40379291882657        0.04878230233359
O            0.71169265582680        2.51000983419346       -0.08840968880908
N           -1.17429044672642        1.12467007155766        0.13927587001634
C           -2.05617215757546        2.25580455210013        0.16226438174873
C           -3.53948333465170        0.52127265258081       -1.27394490847253
O           -4.07300061981627       -0.41784249887952       -0.93444348309970
N           -0.77880107622869       -1.48149539380991        0.04147322654121
C           -1.29673677231542       -2.80341856652178        0.03584789659385
H            3.80410648695448        1.18706712582743        1.09071753081353
H            4.07160437283812        1.02003541771557       -0.65610924456702
H            2.78248257431130        2.09421682708492       -0.04648207600154
H            3.72251170764753       -1.57418880943621        0.07405510994007
H           -1.75342525049402        3.11425190693204       -0.45888245821396
H           -3.08821543619281        2.02400991844908       -0.17723470186307
H           -2.04928819926963        2.59525437984373        1.19293725514833
H           -0.92077530047015       -3.36582688360285        0.89465586076165
H           -1.02397089530470       -3.33746816363869       -0.88226470813024
H           -2.38655911034728       -2.71535010958221        0.07962096429913
H            1.60511962315667       -2.99309375807150        0.04940494411841
