25
 energy: 87.832682668098 xtb: 6.6.1 (8d0f1dd)
C            3.28070331779422        1.14726805046280        0.12807749595121
N            2.32261896429134        0.08670445939803        0.05985160863481
C            2.65140677329381       -1.21058403272124        0.09473289085936
N            1.52695622254621       -1.97733145458832        0.04822787040113
C            0.38583310489694       -1.15571345991479        0.03143287319095
C            0.92698750269821        0.16687167353825        0.04436102899590
C            0.21254677893317        1.32305254406052        0.02119651440957
O            0.53915939795274        2.48446599317678       -0.07223447399035
N           -1.71644138031747        0.98391463674948       -0.13994632263450
C           -2.21317416176694        2.32637779060204        0.17373504295751
C           -2.71778536570302        0.40624236952463       -0.68770762820682
O           -3.53636454530780       -0.34097373938297       -1.07920850017069
N           -0.86246725268202       -1.40187803381048       -0.00455953309375
C           -1.32139485249348       -2.75285438643967        0.02633858789266
H            3.78698923033440        1.16603480131537        1.09651823433967
H            4.03972469195001        0.99433950931064       -0.64034474782667
H            2.78897492776322        2.10469890794528       -0.03874203709807
H            3.65294475336825       -1.58106942981322        0.08481733677711
H           -1.77259444550731        3.09759820123348       -0.44855143262811
H           -3.25212715725373        2.17008159773831       -0.05462452549518
H           -2.14861479652649        2.53783002372885        1.23449347404586
H           -0.89258243864482       -3.25269833652085        0.89730891656010
H           -1.02272658394818       -3.29138007374806       -0.87558898058212
H           -2.41096883845487       -2.78207302214827        0.10219806708999
H            1.53864690797532       -2.97657240732490        0.05809503705647
