  72
        -99.34575767
 N         -1.2873449673        2.7409170093        2.1580735797
 C         -1.4305925339        2.1872415951        1.0468294605
 C         -2.7463515595        2.0409376887        0.3320848466
 C         -3.2024645879        0.5906805735        0.3793139939
 C         -4.2585034089        0.1717514019       -0.4322858485
 C         -4.7265344645       -1.1309684283       -0.3970120155
 O         -5.7380780152       -1.6160969930       -1.1454565965
 C         -6.4433198593       -0.7469327858       -1.9999588482
 C         -4.1230537518       -2.0678375766        0.4854347845
 O         -4.6455362130       -3.3099705976        0.4552829913
 C         -4.1734267057       -4.2755521503        1.3652603326
 C         -3.0767877651       -1.6453494090        1.2898693323
 C         -2.6229371581       -0.3333690930        1.2358177209
 C         -2.4909043964        2.4723569799       -1.1352133585
 C         -1.6828337194        1.4663873602       -1.9764871689
 C         -0.2211338340        1.5124999428       -1.7127381915
 N          0.5907495435        0.4656793767       -1.5454582463
 C          1.9175434331        0.5852925775       -1.6921040867
 C          2.9304314323       -0.4246132987       -1.3853099654
 C          3.5307816593       -0.2793299555        0.1128113361
 C          4.2773006323        0.9930003235        0.1873446468
 C          5.6323545569        1.0361094701        0.0866200957
 C          6.4014137377       -0.1410565609        0.0478882740
 O          7.7232898703       -0.2024045089       -0.1225243655
 C          8.4618094158        0.9790339417       -0.3425654144
 C          5.7467795605       -1.4049404723        0.2670470221
 O          6.5957271608       -2.4452025173        0.4002706284
 C          6.0674714690       -3.7223647432        0.6720121801
 C          4.3901447420       -1.4597936573        0.3617927411
 C          0.0118811604       -0.8239611181       -1.2055776655
 C         -3.8794678212        2.9164000995        0.9492204287
 C         -4.2554649233        2.4480765932        2.3530027679
 C         -3.5377471720        4.4033363883        0.9798065843
 H         -4.7304702070        0.8799035938       -1.0923418369
 H         -6.9073311503        0.0733676449       -1.4441377510
 H         -7.2204707909       -1.3555986564       -2.4579461338
 H         -5.7959957948       -0.3397371481       -2.7835180157
 H         -4.3117751602       -3.9509105007        2.4008129061
 H         -4.7724576684       -5.1656013813        1.1828741726
 H         -3.1177667925       -4.5084638381        1.1928799179
 H         -2.6102844568       -2.3300914388        1.9793116476
 H         -1.8266260005       -0.0326421749        1.8992179764
 H         -3.4518144425        2.6309360110       -1.6231634819
 H         -1.9646826272        3.4275180652       -1.1337810918
 H         -2.0966112831        0.4671933114       -1.8558395899
 H         -1.8274198997        1.7544743506       -3.0259819634
 H         -0.5908591402        1.7836655377        0.4519111942
 H          0.2673161593        2.4577450911       -1.9002585463
 H          2.6603453947       -0.2810526064        0.7722630622
 H          2.2638869747        1.5719116386       -1.9556658776
 H          3.7819236180       -0.2977364987       -2.0535264437
 H          2.5688617543       -1.4455134378       -1.4867206140
 H          3.7110604626        1.9082121066        0.2496887762
 H          6.1329178424        1.9917030540        0.0681164092
 H          8.4317748304        1.6367501911        0.5306138113
 H          8.0985373829        1.5193096816       -1.2215964266
 H          9.4867683609        0.6558405490       -0.5142099131
 H          6.9255687825       -4.3888901030        0.7278999209
 H          5.5336877606       -3.7366237658        1.6271279792
 H          5.3987719303       -4.0575235043       -0.1268543684
 H          3.8878369330       -2.3950643331        0.5456002761
 H         -0.2606988025       -1.3679059169       -2.1107914431
 H         -0.8768144193       -0.6858659530       -0.5904539026
 H          0.7235419728       -1.4172696337       -0.6396428153
 H         -4.7560220852        2.7828786842        0.3046278247
 H         -3.4098730970        2.5663277102        3.0229417921
 H         -4.5634090272        1.4053742195        2.3522449736
 H         -5.0810838442        3.0479127289        2.7269765078
 H         -2.6658347678        4.5771434492        1.6031269580
 H         -3.3517533590        4.7988282679       -0.0150997798
 H         -4.3736126860        4.9525979355        1.4052896155
 H         -0.3476196323        2.8106641468        2.5359812397
