  25
        -42.16115043
 C          3.5904346463        0.7551602511        0.2523745304
 N          2.5382047103       -0.2133710403        0.1181242345
 C          2.6712677484       -1.5337551079        0.0472935708
 N          1.4493951841       -2.1181587019       -0.0422258686
 C          0.5147067147       -1.1324346288       -0.0218366851
 C          1.1938819474        0.0875165132        0.0784575721
 C          0.5188618776        1.3154573064        0.1497043082
 O         -2.5217298029        2.6020398448       -0.7198678879
 N         -0.8096927565        1.1814832913        0.1292779281
 C         -1.6084705714        2.4241236152        0.2883129515
 C         -1.5678776697        0.0033592847        0.0461174279
 O         -2.7611202663       -0.0204866405        0.0737211878
 N         -0.8223169193       -1.1973012590       -0.0690065539
 C         -1.5353172317       -2.4556382395       -0.1650737987
 H          4.0363517780        0.6977606582        1.2465559812
 H          4.3670929772        0.5802784755       -0.4912263746
 H          3.1609833149        1.7451137941        0.1131245353
 H          3.5998531710       -2.0681429393        0.0626402839
 H         -2.1100025814        2.9144125352       -1.5386508013
 H         -2.1791052628        2.3337688648        1.2233899881
 H         -0.8688655171        3.2298568999        0.3727713213
 H         -1.3368320168       -3.0751646034        0.7103804880
 H         -1.2474362493       -2.9855227066       -1.0733933397
 H         -2.5998655140       -2.2275789329       -0.2050577987
 H          1.2873120445       -3.1135719357       -0.1038246531
