  25
        -42.10863064
 C          3.1622998986        1.0613906460        0.0052334913
 N          2.2895851807        0.0612525811        0.0049317664
 C          2.5514344941       -1.2654306805        0.0115081324
 N          1.3840611434       -1.9671836629        0.0100737949
 C          0.3554415571       -1.0786504723        0.0006968036
 C          0.9025352825        0.1932088909       -0.0006653581
 C          0.0806937601        1.3810466703       -0.0052752944
 O          0.4824928742        2.5204916860       -0.0137328243
 N         -1.2772474531        1.0536307631        0.0030575545
 C         -2.2304328231        2.1533363184        0.0244118050
 C         -1.8481203647       -0.2059150848        0.0016630094
 O         -3.0352690864       -0.3740168934        0.0056422495
 N         -0.9672556678       -1.3102046259       -0.0037700778
 C         -1.5186057852       -2.6509875129       -0.0031292694
 H          2.7857873570        2.0691026718       -0.0007375176
 H          4.2128896830        0.8427825765       -0.0015751209
 H          3.9033890912        4.3257152648       -0.5879271080
 H          3.5271711167       -1.7032790766        0.0238646751
 H         -1.6706084707        3.0854438691        0.0379578516
 H         -2.8698028036        2.1085641856       -0.8574652004
 H         -2.8626274657        2.0766977704        0.9083069856
 H         -1.1889804089       -3.1986724238        0.8803107351
 H         -1.2264090426       -3.1850747138       -0.9081189406
 H         -2.6040571302       -2.5587402007        0.0194235720
 H          1.3136218050       -2.9739127977        0.0053330281
