  72
        -99.39878590
 N         -0.8375965756        3.0751332906        1.3489295804
 C         -1.2921227112        1.7867500603        0.9091721205
 C         -2.7100642192        1.7762435565        0.2451121988
 C         -3.3870369807        0.4135254995        0.2804997245
 C         -4.3314926599        0.0869123627       -0.6956438707
 C         -5.0159872756       -1.1178925242       -0.6874709742
 O         -5.9210057649       -1.5053988563       -1.6081262827
 C         -6.2066805681       -0.6649574959       -2.7008060112
 C         -4.7848836885       -2.0486361024        0.3606731975
 O         -5.5024212826       -3.1845438057        0.2991403932
 C         -5.3756510113       -4.1356314938        1.3308936287
 C         -3.8692491909       -1.7126146312        1.3455190102
 C         -3.1847854688       -0.5060244046        1.3043495373
 C         -2.3254357864        2.1590484897       -1.1954150806
 C         -1.1578252851        1.2232462219       -1.4907534072
 C         -0.3112852947        1.2843419301       -0.2049824063
 N          0.3926688563        0.0960701010        0.1859272414
 C          1.8211213738        0.1608452887        0.2976644370
 C          2.5725896792        0.0451510440       -1.0522935543
 C          4.0502004280        0.0493060327       -0.8114276549
 C          4.7954548516        1.2142826206       -0.9266161221
 C          6.1556087892        1.2183942646       -0.6624898271
 C          6.8024613721        0.0556147465       -0.2648367034
 O          8.1111191696       -0.0576713126        0.0216246527
 C          8.9411028438        1.0765868016       -0.0779011154
 C          6.0462796973       -1.1447443740       -0.1373492547
 O          6.7484253394       -2.2246621849        0.2548268455
 C          6.0879094293       -3.4580810558        0.4115688653
 C          4.6882553025       -1.1235841476       -0.4129309193
 C         -0.1686840631       -1.2013981587       -0.0698033731
 C         -3.6814608916        2.7894292339        0.9373087399
 C         -4.1280986418        2.3156840145        2.3225708858
 C         -3.1628398927        4.1625465873        1.0109043267
 H         -4.5586573846        0.7904942847       -1.4780513537
 H         -6.6415296339        0.2854959543       -2.3761765028
 H         -6.9363086655       -1.2054095868       -3.3006035798
 H         -5.3135317809       -0.4739742062       -3.3044259179
 H         -5.6674439226       -3.7165525640        2.2986108610
 H         -6.0558106467       -4.9433764779        1.0676890743
 H         -4.3553237974       -4.5261618997        1.3938936591
 H         -3.6799318080       -2.3869872110        2.1646943215
 H         -2.5032381820       -0.2997366901        2.1128110348
 H         -3.1279807331        2.0595583237       -1.9194894619
 H         -1.9836858760        3.1935355254       -1.2269325032
 H         -1.5348414341        0.2164343194       -1.6607313085
 H         -0.5855713928        1.5287962130       -2.3653809621
 H         -1.2433114119        1.1291505994        1.7769520220
 H          0.4436951230        2.0664582348       -0.3223702132
 H          2.1502112677       -0.6540355816        0.9478745194
 H          2.0943463818        1.1038702692        0.7768290372
 H          2.2894473016        0.8802779135       -1.6941268639
 H          2.2755546313       -0.8846602473       -1.5393680406
 H          4.3170108405        2.1313894556       -1.2344560056
 H          6.7084994878        2.1373388782       -0.7693725847
 H          8.6237572109        1.8659888918        0.6100577051
 H          8.9628719679        1.4682586189       -1.0992091387
 H          9.9365812537        0.7348365407        0.1990587125
 H          6.8540994819       -4.1610006894        0.7329350806
 H          5.3066682523       -3.3997810123        1.1760616576
 H          5.6528707449       -3.8027014905       -0.5316155099
 H          4.1074043474       -2.0286304128       -0.3284985460
 H         -0.0101694639       -1.5416283387       -1.1014463353
 H         -1.2379867208       -1.1881396262        0.1317413230
 H          0.2998235835       -1.9233792462        0.5990713090
 H         -4.5682765970        2.7992427498        0.2799097962
 H         -3.2736487726        2.2016168804        2.9853453906
 H         -4.6508774469        1.3654911150        2.2677854174
 H         -4.8042877716        3.0460147689        2.7597403405
 H         -0.5932249153        3.6934818717        0.5870813616
 H         -2.8704024238        4.6910945172        0.1233965883
 H         -3.3981828034        4.7619608503        1.8758670633
 H         -1.4600548843        3.5331382927        2.0062990918
