25
 energy: -42.181024597995 gnorm: 0.003131554288 xtb: 6.6.1 (8d0f1dd)
C            3.20204563970435        1.07806263047818        0.00748225923735
N            2.18003281480468        0.07568895880749       -0.08882030036090
C            2.35423520459494       -1.26220363788562       -0.17880057548556
N            1.21602637586293       -1.91889147705862       -0.24302152235780
C            0.24792863046951       -0.98269985739640       -0.18940810344839
C            0.82859865448570        0.28537195949649       -0.08980971841327
C            0.05170034342460        1.49368933785705       -0.01993354998632
O            0.48388621514921        2.62548703323662        0.02780551245024
N           -1.32579467598405        1.21968443276750       -0.01149774516344
C           -2.22906020418814        2.35437083385074        0.08149243466843
C           -1.94373647334724       -0.00673378588757       -0.08590446318164
O           -3.13853157467376       -0.13500715763045       -0.05461305113497
N           -1.10837147630988       -1.17175154984247       -0.22573675053699
C           -1.67960740433863       -2.35964115302225       -0.38433291526354
H            3.72191711862605        0.99940807728327        0.96530368368518
H            3.93148653994164        0.94982507219165       -0.79373452087932
H            2.74522876491722        2.06521781694458       -0.06817334537785
H            3.31588697666779       -1.73768059514394       -0.19360656410787
H           -1.63206095411072        3.26524124449683        0.10167933367939
H           -2.90431889474720        2.36597658881161       -0.77612502992612
H           -2.83324321794849        2.28051382945061        0.98709812692990
H            0.55043467464251       -4.27765239083766        1.31903869629310
H           -1.05230644660255       -3.22433924850699       -0.49898460922223
H           -2.75524309894909       -2.40769501637228       -0.39638840570116
H            0.93329798200034       -3.75600340448681        0.84016274151438
