  25
        -42.13572407
 C          3.3590597394        0.6353950048        0.0046011217
 N          2.2563986044       -0.2867524565       -0.0049968871
 C          2.3318183998       -1.6209887047       -0.0053847454
 N          1.0866238346       -2.1537779623       -0.0114509529
 C          0.1867296308       -1.1196726518       -0.0108368053
 C          0.9247676498        0.0618901605       -0.0063041931
 C          0.3031631242        1.3606592186       -0.0253639345
 O          0.8785749949        2.4301041768       -0.0603512244
 N         -1.0962090031        1.2589529433       -0.0015065024
 C         -1.8572233297        2.5014397533        0.0118502279
 C         -1.8613388233        0.1209340439        0.0174769584
 O         -3.0614118536        0.1323120856        0.0565243738
 N         -1.1711717910       -1.1522667535       -0.0195646701
 C         -1.9169114506       -2.2687263683       -0.0737406086
 H          3.8765270545        0.6008807629        0.9651296780
 H          4.0682857919        0.3858079068       -0.7842139419
 H          2.9743078904        1.6428054438       -0.1521454156
 H          3.2382138687       -2.1920499703       -0.0052130984
 H         -1.1526913223        3.3292257239       -0.0253649715
 H         -2.5265215968        2.5336679727       -0.8481816930
 H         -2.4612956136        2.5557513687        0.9176492073
 H         -2.2631539684       -4.6520268599        1.7256221218
 H         -1.4595062254       -3.2380292196       -0.0833198513
 H         -2.9835863359       -2.1462472700       -0.0798495668
 H          0.8734136525       -3.1407784565       -0.0029232603
