25
 energy: -6.036753567458 xtb: 6.6.1 (8d0f1dd)
C            3.22686977442165        1.23328058354106        0.09039659084555
N            2.33052153988172        0.10444761016444        0.03612496058744
C            2.61344247286465       -1.25600664289829        0.03317812390401
N            1.42056126615053       -1.95458982548968        0.00158464596631
C            0.40366944418449       -1.07550398934097       -0.01071762332513
C            0.93642571128731        0.20670124011623        0.01119689625642
C            0.12825658932130        1.36430220085058       -0.00763538336721
O            0.51105644325670        2.53778910053926       -0.01049058400358
N           -1.25936005853092        1.03465035485822       -0.03179002509766
C           -2.20079507223097        2.14058857545706       -0.04866857198926
C           -1.81708267984410       -0.20682745706024       -0.04837616316868
O           -3.01811212286689       -0.38607018481139       -0.06983261499620
N           -0.94110929039078       -1.31039030434644       -0.03907914856484
C           -1.49647001209775       -2.64379045126223       -0.06165622022046
H            3.72347770105776        1.31680635161338        1.06429418229414
H            4.00422903491903        1.15061278127773       -0.67626525326971
H            2.64160366713331        2.13569227203694       -0.07677116974256
H            3.58053941248955       -1.69358566517909        0.04371083751885
H           -1.63534518208475        3.06933573760859       -0.02526153647978
H           -2.80568232272972        2.09617017257878       -0.95314543225329
H           -2.85218123402426        2.08057956311419        0.82125626557502
H           -1.20848057166541       -3.20460650137130        0.83040298823494
H           -1.18322931812761       -3.18483490892394       -0.95758693902958
H           -2.58091576752227       -2.53303987693416       -0.07595839014857
H            1.34296146799694       -2.95804770152330       -0.01172150559433
