25
 energy: 7.053370988296 xtb: 6.6.1 (8d0f1dd)
C            3.17681559645025        1.41197120897149        0.09744072948059
N            2.42249562410428        0.08384831033648        0.05625856170211
C            2.66151204144032       -1.32978229180349        0.05697136035148
N            1.44487728381737       -2.03041279559061        0.01723571871594
C            0.43624640611210       -1.13913209396033       -0.01025868960413
C            1.00155424434374        0.13693209979558        0.01023201228140
C            0.17275518049430        1.28223315924125       -0.01957989797829
O            0.54489592934685        2.45466464575011       -0.04532586056580
N           -1.22073243970050        0.97956497677019       -0.03764754591846
C           -2.12759906658161        2.11742444664137       -0.04576410303220
C           -1.79392830315803       -0.24917869732453       -0.05583777974690
O           -2.99815137399610       -0.41343320753162       -0.08006023881678
N           -0.92653321487033       -1.35955288959755       -0.04667901523039
C           -1.56725399195645       -2.65768915652416       -0.06679858381128
H            3.70629804801374        1.61530025957931        1.03956591565527
H            3.94617465147962        1.48280275204699       -0.68834091512858
H            2.44184045313878        2.19487053560324       -0.03822590839245
H            3.59255407216155       -1.83909716075388        0.04643642813315
H           -1.52953100928330        3.02374972704250       -0.02461068647316
H           -2.73885707358994        2.10669979865519       -0.94628407694295
H           -2.76478830796550        2.08802092458027        0.83405743950919
H           -1.33173759027094       -3.23970599425502        0.82577504697823
H           -1.30537508057324       -3.22251032564624       -0.96303443855569
H           -2.64473530622877       -2.46918129403778       -0.08093568387181
H            1.28928051421007       -3.03229634376843        0.00283034726311
