25
 energy: 30.004904118271 xtb: 6.6.1 (8d0f1dd)
C            3.85558805317320        3.18217628424609        0.16193346624559
N            2.27466299093053       -0.71634317088304        0.00368517657270
C            2.31998881257471       -2.00415406917317        0.00855959761759
N            1.06195386142916       -2.57561670377640       -0.01355859505914
C            0.18299104731905       -1.54096271257170       -0.03048125068752
C            0.94827572317047       -0.38559070985897       -0.01779487089748
C            0.32445112046789        0.91028626203654       -0.02213630205165
O            0.86844981331149        1.98872077357756       -0.02107281764124
N           -1.08397329136317        0.80810731397408       -0.03759007136868
C           -1.84425437378784        2.05197197272421       -0.03413739359689
C           -1.85055474199673       -0.33379634219357       -0.06010044137453
O           -3.06056057004040       -0.29827016723119       -0.08294079155343
N           -1.17584583169191       -1.55392705408046       -0.05493812763056
C           -1.93284816277758       -2.78883575682905       -0.07951430933142
H            4.27176589356347        3.45076597243660        1.10941375534288
H            4.46659505773668        3.19494933947115       -0.71490911923487
H            2.82366174174440        2.91642681767493        0.08816958360075
H            3.21776567747033       -2.58980234937631        0.01717326847977
H           -1.14138322250020        2.88192341785688       -0.01498611634536
H           -2.46334000652353        2.11013496841307       -0.92706048508953
H           -2.49690970081254        2.08971306931349        0.83795679347450
H           -1.71655455641232       -3.38503431747381        0.81007228195991
H           -1.69369391355524       -3.36813015024404       -0.97451591322710
H           -2.99015532689257       -2.52754041248367       -0.09099607585274
H            0.85371566366430       -3.55994159687564       -0.01755677519067
