72
 energy: 28.922703148482 xtb: 6.6.1 (8d0f1dd)
N           -2.10463661686588        2.09914498097719        2.36405937723217
C           -1.74898328931254        2.43025647404645        1.07746842466902
C           -2.29383345312498        1.74802295901975        0.04975575015692
C           -3.06511402540865        0.51253064118894        0.25872929377082
C           -4.18530209126467        0.20387047286244       -0.51798171723498
C           -4.88983911364189       -0.97580338295282       -0.37304533515471
O           -5.99921453308868       -1.32702529357092       -1.09202975824941
C           -6.51905630032748       -0.39799831118284       -2.00419195871110
C           -4.45825265845746       -1.92537892869043        0.57634157222313
O           -5.22539829502702       -3.05378080449099        0.65560042965855
C           -4.89448817656868       -4.03891640177232        1.59602211126592
C           -3.32628591930958       -1.64633208876770        1.32552590496377
C           -2.65673305758638       -0.43628481439247        1.18448913917699
C           -1.96958888510266        2.13423805867869       -1.34532697904370
C           -1.08515984682347        1.06809415070041       -2.03441519293897
C            0.29896166700603        0.94771507992253       -1.53569068977671
N            0.77677270539834       -0.13405861224781       -0.82368199856450
C            2.12081958483817       -0.09870957069185       -0.34006960853931
C            3.12056158662805       -0.63842679425343       -1.38541525932199
C            4.52078484156515       -0.50630619307283       -0.88364129807871
C            5.22073530010546        0.67629458394598       -1.04471855023371
C            6.51016978684374        0.81391306862340       -0.54836874786377
C            7.12432661802751       -0.23037131977332        0.12527183263741
O            8.38782176089295       -0.21028852055082        0.64513486765119
C            9.16021505583107        0.94744054259956        0.46878404932511
C            6.41496701724611       -1.43965281473484        0.30452659652887
O            7.09335032769871       -2.41437315514132        0.97604833680732
C            6.47545680653597       -3.65983093471745        1.16453884795778
C            5.12992897150997       -1.55716760822011       -0.19448841876625
C            0.09549129632797       -1.39891866801578       -0.84242435083147
C           -4.61678338910763        3.52762340433425        0.66331768257218
C           -4.94455458240787        2.82958373920254        1.73524493598603
C           -4.01646327871729        4.86535979547176        0.72010924672615
H           -4.51507430373307        0.93193551080734       -1.23873873973228
H           -6.78316676828953        0.54116009782710       -1.51031845397755
H           -7.42026472522686       -0.85157175318095       -2.41160729791666
H           -5.82235218575237       -0.18285179623303       -2.81696704302641
H           -4.94575998110280       -3.64582481028936        2.61835001717755
H           -5.64296360604406       -4.82171978956162        1.47541673354558
H           -3.90625329355549       -4.47064150165715        1.42291944274128
H           -2.96747333755458       -2.36437168518365        2.04784401089690
H           -1.81205221887663       -0.22995714057896        1.81578619345814
H           -2.85382722357397        2.23934053148554       -1.97707601713836
H           -1.45852497839139        3.09511277848368       -1.33611707623205
H           -1.61471301941330        0.12198719262935       -1.97356144901072
H           -1.01403149278533        1.39815196189364       -3.07894206205396
H           -0.90037056061151        3.09254270215514        0.85077849818173
H            0.86500327462223        1.85772806750397       -1.39663680054663
H            2.21472749770535       -0.69447797961469        0.57373608428087
H            2.39366087613181        0.93152613936912       -0.10533387622525
H            2.98885022629234       -0.06468129393000       -2.30456876059313
H            2.87963459072532       -1.68235421547212       -1.59205247752651
H            4.76699587375447        1.50042533566646       -1.57331775384039
H            7.02857168733619        1.74778632173227       -0.70016628138341
H            8.71327645443954        1.81365279598881        0.96957737368544
H            9.30932235776393        1.17864234373100       -0.59194474871114
H           10.12393276335024        0.72840932098848        0.92493391242623
H            7.20251838363680       -4.27093555101387        1.69915609502278
H            5.56630482341050       -3.57392023139524        1.76834435854700
H            6.23299497162412       -4.14048808612474        0.21048536600001
H            4.58333102981536       -2.47900303708429       -0.06727008066201
H            0.00097080801237       -1.79018195916681       -1.86598550701644
H           -0.90210906607635       -1.31250385404157       -0.40526464036329
H            0.66145667395637       -2.12258155377990       -0.25736007005369
H           -5.04082797580439        3.26238059656073       -0.29276615042295
H           -3.15320104201460        1.93921195676827        2.32896140632808
H           -5.58869673260225        1.98091168036326        1.62760796757700
H           -4.81724348452191        3.20203717352279        2.72592097882155
H           -3.67218439940986        5.09031245526162        1.72381774990445
H           -3.18218796297000        5.08283271225922        0.08028005545378
H           -4.83727626648217        5.51879239355874        0.39916095211759
H           -1.73041881192454        2.71840386387214        3.07213080274423
