72
 energy: 38.452825048650 xtb: 6.6.1 (8d0f1dd)
N           -1.98352372821430        2.37711007103420        2.41794901479211
C           -1.71550348129644        2.43320039379680        1.18069547594890
C           -2.59350375856119        1.95080317187416        0.11959547655995
C           -3.15992816614853        0.58054274690245        0.29387091904367
C           -4.22883233289140        0.21569321135331       -0.53392762308827
C           -4.87593166404291       -0.99587423038482       -0.42676821439477
O           -5.94619764904027       -1.38593426887810       -1.18433264534375
C           -6.47720509967321       -0.46780891411779       -2.10107305434104
C           -4.43979533804274       -1.93264283877497        0.53356076095318
O           -5.15473855470879       -3.09884540709939        0.57146649717515
C           -4.82049555558690       -4.06245901707916        1.53243610922665
C           -3.35392215954495       -1.60679840907050        1.32770385232831
C           -2.72993019333487       -0.36387970548039        1.21572259724947
C           -2.07682118385976        2.20392094350941       -1.28105167573293
C           -1.15367458334052        1.11374436920096       -1.89912923010950
C            0.20209667126872        1.01597922186825       -1.32582248930986
N            0.73211581131298       -0.11230705857300       -0.73445946289654
C            2.08416420755094       -0.08447289784229       -0.27387807624254
C            3.05816046161725       -0.60633618957777       -1.34850351877961
C            4.46770181875416       -0.48201124529427       -0.87137837225748
C            5.17232702702136        0.69454513716816       -1.04474717752259
C            6.46880495248034        0.82363314185521       -0.56514111370385
C            7.08217291314835       -0.22296206258576        0.10383802345346
O            8.35231490571773       -0.21360683630284        0.60114629711490
C            9.12949711963027        0.94025396047910        0.41861300096290
C            6.36676982214935       -1.42530463516008        0.29668136057655
O            7.04460413286430       -2.40380313702192        0.96197313551189
C            6.42108800064344       -3.64473957166465        1.16019663598545
C            5.07507485368110       -1.53435562022039       -0.18625217568306
C            0.04652931159212       -1.37389702670911       -0.76568565394184
C           -4.23433353129417        3.27073948352709        0.55880520387070
C           -4.68406709652059        2.62597359647551        1.83272033942599
C           -3.80161473498549        4.71346398084936        0.65803840267444
H           -4.55969542367386        0.93176507815240       -1.26808194046623
H           -6.80528075072350        0.45116073669132       -1.60751728779851
H           -7.34056913421265       -0.96045473604131       -2.54424354328288
H           -5.76224059649242       -0.20926098259322       -2.88672544641497
H           -4.92624644905762       -3.66797101156286        2.54916987332340
H           -5.52790563243659       -4.87853422276815        1.38814541177081
H           -3.80593390318003       -4.44731309850979        1.39944252869476
H           -3.00050296637827       -2.31252039602445        2.06597732212338
H           -1.92025034454125       -0.13799948459525        1.88782722958710
H           -2.91224309358045        2.29647275259757       -1.97510759931157
H           -1.52610061309758        3.14532405557652       -1.28589304948933
H           -1.67165553071527        0.15978866731079       -1.84868552217026
H           -1.06276284612084        1.40515095942906       -2.95589438196046
H           -0.72053749068883        2.68509639054383        0.79527758569212
H            0.79031524348197        1.91784708595432       -1.24810929834709
H            2.20233890711458       -0.68875311808169        0.63426547277479
H            2.35619536685804        0.94425404598428       -0.03385816027070
H            2.91315291414801       -0.02095289056797       -2.25799371806344
H            2.81275416246603       -1.64700969452753       -1.56638243989815
H            4.71760342553758        1.52086108132002       -1.56879253757615
H            6.99307060077757        1.75205203025807       -0.72896178163142
H            8.69086533483555        1.81102886811808        0.91901485285807
H            9.27200019505227        1.16700810362366       -0.64369745902917
H           10.09529661530703        0.71752838743446        0.86874988077759
H            7.15117424673456       -4.26152379162242        1.68412191676693
H            5.52151581586706       -3.55198723540540        1.77709574801728
H            6.16134428444844       -4.12410398258878        0.21008304975363
H            4.52199425000250       -2.45057800594543       -0.04851472865087
H           -0.07948494103790       -1.74157595776150       -1.79390464483209
H           -0.94091542483007       -1.28850150775001       -0.30507024275969
H            0.62203077995096       -2.11311657054927       -0.20817467248801
H           -4.92425863833298        3.15047616943960       -0.27242815474745
H           -3.85918777114744        1.97217109522865        2.20987000905089
H           -5.48266559901176        1.92246899578375        1.66153667658283
H           -4.95404687158894        3.34582805648858        2.60023027173971
H           -3.30479475098598        4.94035494290857        1.59626284682954
H           -3.10882299788479        5.00902921876062       -0.10735976009014
H           -4.66163025120644        5.38587187861891        0.55033477765195
H           -1.30492111691872        2.78689911743562        3.05375421130543
