72
 energy: 20.458766066611 xtb: 6.6.1 (8d0f1dd)
N           -1.94713521231240        2.52785344449108        2.40978624598938
C           -1.69723486035720        2.40231217554974        1.18149325368832
C           -2.69214249323720        2.02890133020539        0.14281820077376
C           -3.19775491155736        0.60254644317851        0.30409306903846
C           -4.24508674158803        0.22302791890374       -0.54076316613101
C           -4.86923846146784       -1.00299697499202       -0.44852676159727
O           -5.92152428829510       -1.40870270376241       -1.22075848758198
C           -6.46122962263514       -0.49685422923575       -2.14017610822819
C           -4.43113939562178       -1.93536193976781        0.51512799331114
O           -5.12389540258104       -3.11373934860772        0.53801548407535
C           -4.78992722992318       -4.07074077315375        1.50705790034465
C           -3.36611873912657       -1.59162474661379        1.32891403968014
C           -2.76123559399954       -0.33634992839095        1.22670961933272
C           -2.11701187181918        2.23308876765244       -1.26825413471576
C           -1.18570678874326        1.13658160657736       -1.84670878618819
C            0.15882883361923        1.05463688012453       -1.23869949179477
N            0.71270579983702       -0.10092259919919       -0.68831154833761
C            2.06781899315316       -0.07647621294542       -0.24914899235104
C            3.03429788595354       -0.59390720481786       -1.33467834118712
C            4.44573878492028       -0.47265735372189       -0.86636675066623
C            5.15320253991870        0.70193820653623       -1.04485593102405
C            6.45212537450352        0.82754085903211       -0.57243858709384
C            7.06500370498301       -0.22003035617249        0.09486836113880
O            8.33789171859525       -0.21332925205832        0.58626260204915
C            9.11752078598346        0.93799824524614        0.39869764469934
C            6.34727847145134       -1.41977427397139        0.29365228054992
O            7.02638512550084       -2.39961734551176        0.95636931875894
C            6.40024146122714       -3.63851203653567        1.15876492033214
C            5.05328579045908       -1.52593826917281       -0.18176314528511
C            0.02785055257297       -1.36038814129757       -0.73529703599723
C           -4.12256930280363        3.18129276393064        0.53366392304178
C           -4.64383062248525        2.60408987133619        1.84399518312826
C           -3.71688741492682        4.65791292351376        0.63627527235453
H           -4.57977467503594        0.93262840707317       -1.27934423069142
H           -6.81470511691007        0.41303217102533       -1.64692511992493
H           -7.30890807806983       -1.00667769135225       -2.59433337749256
H           -5.74236197052450       -0.22133493086299       -2.91690734560364
H           -4.91777990583997       -3.67649489747666        2.52107815790945
H           -5.48229060790834       -4.89739821209867        1.35191801254155
H           -3.76693287750878       -4.43817375319199        1.39005325842518
H           -3.01453916660686       -2.29270382226218        2.07319462524970
H           -1.96369613991460       -0.10313466639092        1.91192542512378
H           -2.94224272326451        2.32224438995712       -1.97114699718571
H           -1.55614148510785        3.16887230527907       -1.27017487954369
H           -1.69776988760548        0.17827425355322       -1.79923542144135
H           -1.05993262073717        1.39977671576408       -2.90783496409594
H           -0.68973229105877        2.45863201594430        0.76574343354195
H            0.76163147535279        1.94345416587218       -1.18529176775104
H            2.18803084799655       -0.68574216415646        0.65502501638966
H            2.34251918630075        0.95092864151612       -0.00583065173534
H            2.88328262253674       -0.00373199360707       -2.23980419561039
H            2.78654867160135       -1.63326492466356       -1.55550765257324
H            4.69837677538634        1.52927712802557       -1.56735490375927
H            6.97938149514250        1.75336747763597       -0.74093980947520
H            8.68266501731812        1.81103095242839        0.89865928069622
H            9.25756925566086        1.16219881037718       -0.66443466604558
H           10.08369993471638        0.71262212993525        0.84686985094992
H            7.13208863332008       -4.25666077421359        1.67830556258570
H            5.50469827636637       -3.54306423947733        1.78127048794675
H            6.13326754637366       -4.11763150832517        0.21049446208452
H            4.49800721164510       -2.44016173928549       -0.03962212852921
H           -0.10751986023345       -1.71755449317097       -1.76637975806269
H           -0.95603929299679       -1.27967202324763       -0.26647779641244
H            0.60972542639731       -2.10287080568201       -0.18925523649242
H           -4.86036885357061        3.10704763207317       -0.26364699018267
H           -3.78892310024181        2.10768855951127        2.33310230514100
H           -5.37790322623436        1.83618481880369        1.70184941143461
H           -5.03453367845130        3.38015217730471        2.50493337105597
H           -3.15462532531186        4.88503776329700        1.53860164320025
H           -3.10189513456442        4.97499474309487       -0.18456691498257
H           -4.58101149407351        5.33367021465700        0.61509963247527
H           -1.16294689532989        2.79262857250593        2.99510512199546
