72
 energy: -0.227875031917 xtb: 6.6.1 (8d0f1dd)
N           -1.74556528683591        2.70317298346910        2.34864905618059
C           -1.63631762159622        2.29192978598289        1.16569563608514
C           -2.75556605041631        2.07121802935166        0.18739276929223
C           -3.25893930797210        0.63215485264815        0.31641172813602
C           -4.27359086693076        0.23524473204907       -0.55911707840036
C           -4.85798589077827       -1.01328497365543       -0.49013993118178
O           -5.87102664340866       -1.45074801362706       -1.29263473384796
C           -6.42854943043359       -0.55402457010616       -2.21767300226872
C           -4.41482422752552       -1.93908788798548        0.47919504133771
O           -5.05929978254806       -3.14189145505966        0.47371831651764
C           -4.72716509870573       -4.08629021029878        1.45731077221200
C           -3.39354546157080       -1.56511792183258        1.33225610443704
C           -2.82348664354029       -0.29394679257732        1.25019689811118
C           -2.16623537334550        2.27234246646257       -1.22952910423316
C           -1.22810930010770        1.16446549468160       -1.75292390316505
C            0.07819800890247        1.10864271001461       -1.05966727530679
N            0.66942978533438       -0.06815088910411       -0.61294785481488
C            2.03398305268060       -0.05450638952283       -0.20172014012470
C            2.98323152215293       -0.56740594800264       -1.30626379360568
C            4.40129022017139       -0.45274439407422       -0.85232810415095
C            5.11393151753212        0.71667962074294       -1.04369193590103
C            6.41874282091615        0.83523194767554       -0.58727483877518
C            7.03054130028101       -0.21402733062584        0.07643145138295
O            8.30668885510672       -0.21231997605949        0.55655780734581
C            9.09324362135209        0.93323743521121        0.35899578775169
C            6.30804502238112       -1.40956075172522        0.28739770537228
O            6.98924351210462       -2.39089310226591        0.94414848968261
C            6.35809933766874       -3.62620326175949        1.15596926240492
C            5.00864325361534       -1.50909101373303       -0.17202813774359
C           -0.01147725210477       -1.32965219820219       -0.67557469545090
C           -3.99035220983952        3.10737198560008        0.54237341753601
C           -4.55547593643908        2.66820571734873        1.90434193813135
C           -3.55607670125923        4.58534479286954        0.59314869290619
H           -4.61884676818472        0.93698333840772       -1.30027784212427
H           -6.83199627276782        0.33599996632160       -1.72546061452896
H           -7.24255639237483       -1.09714361818608       -2.69442744635573
H           -5.70383040599507       -0.24588757038039       -2.97784407564453
H           -4.90025642608546       -3.69565592820116        2.46560900792981
H           -5.38781642686112       -4.93389558125335        1.28111142901603
H           -3.68831027547753       -4.41897583391639        1.37260774649034
H           -3.04191399784474       -2.25400458664127        2.08663858517589
H           -2.05293315435112       -0.03789527443624        1.95886327723874
H           -2.98830670031146        2.35597841824652       -1.93706844653380
H           -1.60815897621438        3.21055461001877       -1.23690023944245
H           -1.75007915038825        0.20996673842358       -1.70842003732746
H           -1.03629304475294        1.38981051916677       -2.81166782944247
H           -0.67804666490172        2.03664675497074        0.68899166105564
H            0.70621773828325        1.97713702929371       -1.06643775388430
H            2.15440041023866       -0.67600894482564        0.69305089480353
H            2.32063102875868        0.96763632061776        0.05207291399633
H            2.82392091742206        0.03116462313290       -2.20445657002814
H            2.73270702493128       -1.60464680099033       -1.53317423962922
H            4.65941434062276        1.54615902544013       -1.56391137989420
H            6.95134976478218        1.75598800059133       -0.76493631915773
H            8.66697723145233        1.81073546899218        0.85808885743061
H            9.22890785815508        1.15186428438036       -0.70570744639499
H           10.05989714342340        0.70194044683608        0.80335910003932
H            7.09379961362189       -4.24673402273407        1.66627202357483
H            5.47130606814096       -3.52515395213340        1.79049157036836
H            6.07657919166376       -4.10472752982242        0.21167058343656
H            4.44917183761738       -2.41949291785136       -0.02128089028962
H           -0.16345912202733       -1.66908929164627       -1.70886796590104
H           -0.98706635107102       -1.26030743475314       -0.18785554031261
H            0.58410112574704       -2.07674204044096       -0.15255913616237
H           -4.75551801513346        3.02773956218590       -0.22916488824127
H           -3.68153356437837        2.48541234726878        2.55881573547100
H           -5.12411757859807        1.75845267069292        1.83120328667183
H           -5.19024088342425        3.44871574516688        2.34100177213700
H           -2.87067466987756        4.78366699453157        1.41156920417241
H           -3.07660068838620        4.90221710588137       -0.32043543923844
H           -4.40788780060406        5.25624830482269        0.72204955332581
H           -0.87540921094523        2.78225639240640        2.86411533942239
