72
 energy: 16.866521244775 xtb: 6.6.1 (8d0f1dd)
N           -2.00769189290600        2.09029808568628        2.40211634839973
C           -1.74162874894382        2.37626221113760        1.06383808290580
C           -2.15070599800770        1.62887486860548        0.02685327821394
C           -2.95189425971435        0.41012976352192        0.22629988443413
C           -4.11670801587837        0.17817581797893       -0.51617181876214
C           -4.88245537594480       -0.95626509263000       -0.32432931622082
O           -6.03919791090289       -1.25741659760824       -0.99470804420723
C           -6.56083124824873       -0.30706434705552       -1.88549297246091
C           -4.47961844121492       -1.92466742292705        0.62311863869325
O           -5.28955033929348       -3.02607007135833        0.71161273397456
C           -4.98079646121460       -4.01028351743643        1.66440583483514
C           -3.33373779162958       -1.69274023058853        1.36451205734604
C           -2.58619048370184       -0.53605980502749        1.17277602228449
C           -1.88928688878480        2.06543801606930       -1.38419555197308
C           -1.02774856846547        1.03538537109060       -2.14391795292605
C            0.31592677416072        0.94907165621666       -1.53034235772318
N            0.81432424698204       -0.15066807756062       -0.86684075830810
C            2.16241857572400       -0.11209875427139       -0.39794447166928
C            3.18698612288049       -0.67073963122627       -1.41997924650695
C            4.57874112580101       -0.52888415180810       -0.89293782805065
C            5.27474009973022        0.65823282626932       -1.04182952070608
C            6.55411725502388        0.80518433348830       -0.52930385803082
C            7.15987655081771       -0.23878662186899        0.14554801688590
O            8.41804118312257       -0.21347100955933        0.67586130863435
C            9.18771639574192        0.95111670417468        0.52429078099693
C            6.45819721627775       -1.45297453473592        0.31328448459191
O            7.14042045016521       -2.42519338721543        0.98658776308985
C            6.53004516208748       -3.67471477443914        1.16642567265871
C            5.18328113367202       -1.57980557449112       -0.20116868198824
C            0.14558193993723       -1.41959213437735       -0.91284422352270
C           -4.88856922635688        3.71996652017268        0.68961990499862
C           -5.15559636582579        2.93960415629367        1.71622185693452
C           -4.20838050909614        5.03606556112125        0.77669518430923
H           -4.43413791802843        0.91892002606021       -1.23223669407948
H           -6.74608986398040        0.65384200952849       -1.39298854709429
H           -7.50518967746418       -0.72095717045256       -2.23838558596889
H           -5.89017117936990       -0.15868001172633       -2.74211292318651
H           -4.96035700512508       -3.61477983959625        2.68535306024874
H           -5.78063163450078       -4.74497061457794        1.58423669744952
H           -4.01954476975073       -4.49324446639896        1.44272051305949
H           -2.99752179831503       -2.41616303630163        2.09187650709346
H           -1.69347575477988       -0.36819544049642        1.75430464997963
H           -2.83530839408591        2.19855391331113       -1.91255721638566
H           -1.37171667923380        3.02696745479106       -1.37504453127174
H           -1.54932616058015        0.07933756228569       -2.12440904826028
H           -0.93314305786311        1.36717754789440       -3.18580921540403
H           -1.22607525507357        3.33010716220627        0.90816078875418
H            0.94711322448239        1.82106756347975       -1.53574749278864
H            2.22803070855215       -0.68871232610290        0.53254939074554
H            2.42250089836449        0.92454481927929       -0.16922522613047
H            3.07908222989096       -0.11766405449527       -2.35517414672123
H            2.95763298579777       -1.72007430123296       -1.61313584292315
H            4.82138166615797        1.48224299136160       -1.57273512083734
H            7.07226943920473        1.74063320959146       -0.66874864186452
H            8.73231398765861        1.81362527464517        1.02478384668500
H            9.35303716924297        1.19382943740640       -0.53051527596734
H           10.14587123516727        0.73196965834817        0.99515406307253
H            7.25492358445232       -4.27679795768527        1.71250681732146
H            5.61064566051773       -3.59663058544214        1.75671260087415
H            6.30783750831514       -4.15998784417092        0.20958906102183
H            4.63972543863871       -2.50460992747551       -0.08424866028499
H            0.06025517856869       -1.82162566588712       -1.93141735378338
H           -0.86212659365409       -1.33125919323749       -0.49579197070154
H            0.70301601743650       -2.13111699116288       -0.30500050348392
H           -5.19289093934824        3.44088019435241       -0.31813019072111
H           -2.83490689990284        1.52377300523239        2.53022119120202
H           -5.62909961604170        1.98444057709853        1.57865372341863
H           -4.91081206647070        3.24264990049501        2.73060212682271
H           -3.96809742607725        5.29039286589878        1.80147518997586
H           -3.30341616336341        5.04065278372719        0.17776456193793
H           -4.86036201634506        5.80485209483821        0.37161995950586
H           -1.97415729144903        2.89308247952491        3.01139507040834
