72
 energy: -5.745180812889 xtb: 6.6.1 (8d0f1dd)
N           -1.55776091288534        2.76091817051430        2.26584689806222
C           -1.57756122597601        2.18207760228373        1.15176529671456
C           -2.76128157294871        2.07246606249516        0.22974642263088
C           -3.30161012714141        0.64538443548914        0.32086805234260
C           -4.29552015922286        0.24289125074593       -0.57357333110729
C           -4.85122587761577       -1.02020770299623       -0.52060603438182
O           -5.83298272189977       -1.47955684804320       -1.34617295162906
C           -6.40398723970702       -0.59496971977618       -2.27555904665909
C           -4.40281398973784       -1.94145402168330        0.45220867087148
O           -5.00890498642393       -3.16149259773198        0.42656478525674
C           -4.67884721743245       -4.09715104713671        1.42039524046649
C           -3.41529574550036       -1.54816865425675        1.33459830457366
C           -2.87072015294329       -0.26837068257994        1.26780216878801
C           -2.18935630064543        2.29717466565902       -1.19385258559889
C           -1.25611406263818        1.17682077917228       -1.68502475808535
C            0.02091398058872        1.12618065763690       -0.93200846522306
N            0.64145501893018       -0.05070791715695       -0.57330475511767
C            2.00878448845387       -0.03713830062811       -0.16878587151941
C            2.94606835065665       -0.54666505468909       -1.28509732457583
C            4.36868021891053       -0.43772707909808       -0.84009564323873
C            5.08471280098889        0.72760830752607       -1.04177742800974
C            6.39417292343588        0.84056852924441       -0.59880573986396
C            7.00478865935565       -0.21016876379442        0.06207671513470
O            8.28275592090951       -0.21155998943421        0.53481869610110
C            9.07470213785565        0.92935589875265        0.32935225106449
C            6.27891471753661       -1.40286328672475        0.28188588329662
O            6.96158752904801       -2.38514516455936        0.93401901294845
C            6.32642956625823       -3.61755067888988        1.15353995339225
C            4.97529222431030       -1.49726632186111       -0.16462770406714
C           -0.04126566140870       -1.30917886056991       -0.63441062766977
C           -3.90315695904733        3.08584535518503        0.56999346644991
C           -4.51021247985746        2.75215287251430        1.93332637114132
C           -3.43586314036201        4.54387144568788        0.55922116149444
H           -4.64959074061754        0.94319885098699       -1.31208791080475
H           -6.84552330496995        0.27851381950620       -1.78472221648746
H           -7.19058082844267       -1.16307039831640       -2.76945537617851
H           -5.67642927122122       -0.26240761390060       -3.02384005701761
H           -4.88700213053733       -3.71117665576850        2.42383551133119
H           -5.31463758097549       -4.96001145290472        1.22831766847126
H           -3.62914521132067       -4.40368733547209        1.36031607622034
H           -3.06379558788453       -2.22731807467148        2.09626747159575
H           -2.12405058813668        0.00830630617336        1.99595120702114
H           -3.01645954137168        2.37746578235106       -1.89734056961726
H           -1.64114284638096        3.24104134732673       -1.21030085538072
H           -1.79289040567548        0.22944811858931       -1.64362474965204
H           -1.01398623611129        1.38141499978997       -2.73601092742452
H           -0.68599110270008        1.74415752723105        0.64618760787481
H            0.66195273420792        1.98766974904448       -0.97436926250249
H            2.12566843235470       -0.66805353118783        0.71897201511037
H            2.30538620152383        0.98067282658883        0.09679464079356
H            2.78057537254782        0.05892536789776       -2.17784873955739
H            2.69190616912981       -1.58185607554844       -1.51726279437971
H            4.63084335067191        1.55770422226816       -1.56242732107827
H            6.93065040552977        1.75745614800524       -0.78331004555550
H            8.65535385482007        1.81070374261233        0.82700719780543
H            9.20786243339632        1.14315169333587       -0.73662073391004
H           10.04130964527554        0.69355544949972        0.77154358634408
H            7.06504653750859       -4.23915057940011        1.65755705219294
H            5.44613750736953       -3.51208673866088        1.79698923384016
H            6.03445572748959       -4.09653732864265        0.21261328320211
H            4.41277451500844       -2.40528684121824       -0.00963847033640
H           -0.20710281226741       -1.63545800278234       -1.66785903100919
H           -1.00921758630471       -1.24593566803814       -0.12934740075102
H            0.56662176779421       -2.05625293371033       -0.12891662224211
H           -4.67590647434673        2.97432870257394       -0.19543338953852
H           -3.72421599528388        2.79973014026434        2.68748313357255
H           -4.93559683075082        1.75526094239203        1.94141431828871
H           -5.29449178267126        3.46455574873278        2.18090183753691
H           -2.66646169275622        4.71162782946774        1.30632907468977
H           -3.05335774886503        4.83821093177584       -0.41228887028888
H           -4.27082335322560        5.20295473762123        0.78884171181348
H           -0.66678846794382        2.77029794867127        2.75896516133747
