72
 energy: 14.827103246500 xtb: 6.6.1 (8d0f1dd)
N           -1.88826769994389        2.08947639099386        2.42983530063522
C           -1.72453000470826        2.37178687775530        1.08320679586042
C           -2.18130777605400        1.63906806679183        0.05507715103394
C           -2.96886151511271        0.41237991182836        0.25043672299473
C           -4.12308750371739        0.17466602586555       -0.50567700801870
C           -4.88215521241855       -0.96384832552865       -0.32485638289840
O           -6.03612869637808       -1.25711944008253       -0.99427349001404
C           -6.54565408285341       -0.31755444542740       -1.90341231152885
C           -4.48110944357811       -1.93191496959639        0.62320730634654
O           -5.29289031169541       -3.02654900015487        0.71643990347660
C           -4.97647842764678       -4.02300991690365        1.65190412085754
C           -3.33590673695476       -1.70645536250805        1.36396342769033
C           -2.59172404275612       -0.54704496779829        1.18291728851747
C           -1.89826444617536        2.06276835228892       -1.35836334443957
C           -1.03258723736979        1.02991094650006       -2.13033231138087
C            0.33772172301636        0.92221267013323       -1.59034859681426
N            0.79797986590958       -0.13875660163025       -0.83682727198455
C            2.15682736615900       -0.11044419224155       -0.38888513962598
C            3.17654079073315       -0.66909051602763       -1.41423358580056
C            4.57134729266026       -0.52810216423012       -0.89142361973342
C            5.26647265682897        0.65937867340801       -1.04137574666216
C            6.54759174352778        0.80503823050421       -0.53041847403866
C            7.15712471826447       -0.23766726041285        0.14504613857701
O            8.41365236092916       -0.21088178895425        0.67859736130260
C            9.18503921331355        0.95038217324660        0.51698677235961
C            6.45514298500410       -1.45247584495755        0.31260980287565
O            7.13455685677527       -2.42511711157582        0.98622767897456
C            6.52101617944868       -3.67439134602981        1.16668536662910
C            5.17798880629004       -1.57805025077018       -0.19979290521858
C            0.14301325877382       -1.41743067421185       -0.90419961109507
C           -4.94483161929999        3.75359498704131        0.64097352585232
C           -5.20767419790024        2.94889970099824        1.65278235493016
C           -4.22171911438342        5.05369285334691        0.74900091719082
H           -4.43593448100261        0.91502188848130       -1.22348446773336
H           -6.75441452799992        0.64338857630789       -1.41972946485767
H           -7.47865091803279       -0.74416958650439       -2.26991787531980
H           -5.86635820541843       -0.15866041419789       -2.74829523780576
H           -4.97142045792491       -3.63287754070984        2.67581041339224
H           -5.76387297138991       -4.76990055557939        1.55694434287114
H           -4.00888355787126       -4.49081434673284        1.43804629642584
H           -3.00498353385650       -2.43106235012564        2.09231349679844
H           -1.69004797509141       -0.40597268319999        1.75925096707409
H           -2.83196833028137        2.19842528376521       -1.90886001712720
H           -1.37255522426824        3.01936204843691       -1.35347524364590
H           -1.54539821466995        0.06885057493527       -2.13177554830056
H           -0.96814969860899        1.37958074665132       -3.16908527843324
H           -1.14156628330275        3.26712628877498        0.89460244277793
H            0.91019533985782        1.82787072562546       -1.49401860874295
H            2.22742968588102       -0.69030467652062        0.53637405367234
H            2.42762476525309        0.92353217869092       -0.16213151966096
H            3.06218930736701       -0.10934583603518       -2.34424732784006
H            2.94660510038883       -1.71750604584913       -1.61006178032823
H            4.81360357233229        1.48328483724387       -1.57252347972038
H            7.06466062881977        1.74096528974650       -0.67233713946006
H            8.73127050569934        1.81314716882729        1.01736200387823
H            9.34480784267477        1.18813181324816       -0.54046174387317
H           10.14400473932899        0.72896710328783        0.98353464688912
H            7.24643671928887       -4.27841441802273        1.71004946317913
H            5.60294244810693       -3.59507703612844        1.75928291886296
H            6.29445051806588       -4.15762188355663        0.20982937462133
H            4.63412481534443       -2.50282822729514       -0.08154702137711
H            0.07410772904523       -1.80978736868187       -1.92664317683169
H           -0.86723553442738       -1.33474821377931       -0.49598805278099
H            0.70013213746217       -2.12933274668026       -0.29857827334137
H           -5.25512690906772        3.48543488284830       -0.36112738386166
H           -2.63773197461077        1.44488057744235        2.63606269452279
H           -5.73814708706080        2.02075266729599        1.52252666725365
H           -4.89967760110211        3.18649754486290        2.66096128600245
H           -3.96848519011835        5.27510372976582        1.78349251885867
H           -3.30649070343562        5.02113200000965        0.15725207187546
H           -4.84057342805033        5.86122216167039        0.35618389594734
H           -1.85385160314279        2.88768499695247        3.04541727740629
