72
 energy: 21.960926765548 xtb: 6.6.1 (8d0f1dd)
N           -2.09357669602740        2.04290184415847        2.36660650093360
C           -1.74073842340630        2.41189373988619        1.06023277944489
C           -2.20555210226030        1.68907290280099        0.03035045685731
C           -3.00521385870516        0.46691419644708        0.23572683405040
C           -4.15221124177610        0.19297424178867       -0.51874162932329
C           -4.89272973755791       -0.96235838829103       -0.34370598671380
O           -6.02838662071322       -1.28921620423097       -1.03578677224114
C           -6.54426889088377       -0.35469443619599       -1.94661744967256
C           -4.47006993101644       -1.92043463037482        0.60410734111819
O           -5.26887396172883       -3.02427980050488        0.70634294412386
C           -4.94013061339715       -4.02468342498626        1.63377923077854
C           -3.32212093895988       -1.66931414127669        1.33578500539756
C           -2.61601610978678       -0.48180559187026        1.16717046550887
C           -1.91777597596767        2.10208549064638       -1.36702722183909
C           -1.05275742160098        1.04315640725673       -2.09462430623715
C            0.32676242400904        0.92428549811258       -1.58919436634097
N            0.79953756336642       -0.14451814532330       -0.85450281609409
C            2.14289229774444       -0.10449775238996       -0.37662377823099
C            3.15512160553692       -0.65662679034086       -1.40516090829086
C            4.55141793758323       -0.51908037620179       -0.88889368779017
C            5.24860906303988        0.66603440538152       -1.04351956166202
C            6.53435159533649        0.80697405586616       -0.53837218222707
C            7.14954969095460       -0.23492221644568        0.13725084054675
O            8.40672519290249       -0.20802151442275        0.67167816837174
C            9.17732488371286        0.95198817559098        0.49932878338659
C            6.44392211039464       -1.44807381850607        0.30753518840141
O            7.12182188779608       -2.42041720363532        0.98215106836227
C            6.50726576956582       -3.66912033394793        1.16508321261671
C            5.16200733396636       -1.56898764793085       -0.19885425828517
C            0.12416721032921       -1.41142122258417       -0.88566438962009
C           -4.74763907602545        3.60385122624391        0.69913283277035
C           -5.01181884510793        2.86580764496401        1.75807952412092
C           -4.12505911398824        4.93581613772474        0.75375214365989
H           -4.48093629354447        0.92894740578574       -1.23187178800077
H           -6.77049810470244        0.59538892030370       -1.45346716059122
H           -7.46709530625639       -0.78658832850576       -2.33150095520309
H           -5.85893354008948       -0.16498912329267       -2.77510799728058
H           -4.95732870049291       -3.63466367733384        2.65919544532738
H           -5.71314908954731       -4.78589376943153        1.52473846940759
H           -3.96917082402806       -4.48360568686439        1.43375299144876
H           -2.96971265323583       -2.39383502022909        2.05429589196376
H           -1.75068128912318       -0.28607062756300        1.77571129841332
H           -2.82584407881044        2.20513184066341       -1.96251069425890
H           -1.41522668601011        3.06840257958414       -1.35916256804902
H           -1.59297037095718        0.09705572853410       -2.04252567178616
H           -0.99517492141137        1.38160237892144       -3.14148369396729
H           -1.07313652427847        3.27451797489768        0.89095390553972
H            0.90173932241063        1.82697992200509       -1.48903193018683
H            2.21316140968495       -0.69088291822322        0.54177409231887
H            2.41706026311237        0.92831894734736       -0.14860832275672
H            3.03395462335596       -0.09097715853649       -2.33075846733520
H            2.91899572944374       -1.70261513916555       -1.60469121885372
H            4.79688530698163        1.49006101518149       -1.57452954941738
H            7.04957585138356        1.74381027421461       -0.68327258810441
H            8.72563542388108        1.81538406513077        1.00033444955215
H            9.33073247353057        1.18518500616553       -0.56042067058900
H           10.13851144785795        0.73171265787354        0.95988370001833
H            7.23362192824773       -4.27548411905685        1.70532521674651
H            5.59247224221670       -3.58796815567884        1.76142117020673
H            6.27530919082279       -4.15040803760325        0.20864628447350
H            4.61956220278948       -2.49447221239529       -0.07877444940798
H            0.05435217554585       -1.80761325717961       -1.90994304922179
H           -0.88195739089997       -1.32507361382496       -0.46824946662371
H            0.68667019500739       -2.12027295294494       -0.28297211478721
H           -5.10537451483272        3.33250914389114       -0.27981555328483
H           -3.08424333088701        1.77178098682932        2.34138595471598
H           -5.44885333605524        1.88962022353906        1.66270766231800
H           -4.87913328950307        3.23993509358803        2.75462038090136
H           -3.88793751421373        5.17316386525342        1.77959634403882
H           -3.19732157760331        5.06890887676216        0.20921127641562
H           -4.84773980335286        5.63643258678486        0.32562673900990
H           -1.91442205018561        2.75281996908831        3.05766674150224
