72
 energy: 20.858179062495 xtb: 6.6.1 (8d0f1dd)
N           -2.13732575535492        2.04773429889189        2.37851805044878
C           -1.75472585270034        2.38686441095713        1.06636471113958
C           -2.18153461039361        1.66214725117877        0.02472426229302
C           -2.98905079906622        0.44854622361199        0.22824181977135
C           -4.14339906382416        0.18937003212824       -0.51923846666912
C           -4.89571394145396       -0.95726691095731       -0.33435886416474
O           -6.03933686037181       -1.27581853754989       -1.01788524369849
C           -6.55329512436097       -0.33939244988259       -1.92798985665116
C           -4.47604047768717       -1.91677935484619        0.61385395015659
O           -5.28343758779797       -3.01430619072020        0.72347065689293
C           -4.95436018401232       -4.01893072232865        1.64623590030151
C           -3.32465815470326       -1.67571553546455        1.34322144117058
C           -2.60771541023688       -0.49768965795263        1.16535072658648
C           -1.90702086798807        2.09287324110252       -1.37416155092251
C           -1.04407600072487        1.04035881684578       -2.11094492849961
C            0.31699352716957        0.93927377151873       -1.56036325371401
N            0.81365952151204       -0.15323112365958       -0.87847360061065
C            2.15110815843284       -0.10659614018186       -0.38927229802587
C            3.16800925774894       -0.66255637701286       -1.41192815995999
C            4.56215612704610       -0.52319276618504       -0.89072711877475
C            5.25817702794812        0.66314694944401       -1.04247663134166
C            6.54241870894699        0.80493314150044       -0.53433154491413
C            7.15786649602928       -0.23634757946100        0.14229977361543
O            8.41371362647321       -0.20764148730972        0.68046557605340
C            9.18280150518831        0.95323821676628        0.50978920633516
C            6.45364642611008       -1.45044288745057        0.30871654644215
O            7.13120538545480       -2.42282419170621        0.98397006988869
C            6.51758385165871       -3.67224601286932        1.16500525787861
C            5.17296493890358       -1.57281058954235       -0.20025060512891
C            0.13331783215743       -1.41544945305234       -0.90119054221739
C           -4.80187955549549        3.63897607664066        0.70148907472868
C           -5.05686753058592        2.89013524371258        1.75111360781234
C           -4.15514942877240        4.96398946109712        0.76003289279309
H           -4.46838698087843        0.92722590534364       -1.23276844243836
H           -6.76836664417319        0.61388389456368       -1.43539030701061
H           -7.48221782722201       -0.76499715232443       -2.30486641965279
H           -5.87203602437004       -0.15847310025794       -2.76154808066484
H           -4.96119798307209       -3.63117552596759        2.67293028272224
H           -5.73461338873286       -4.77318741430720        1.54078140612971
H           -3.98853393744615       -4.48525469481539        1.43842852727312
H           -2.97739176994639       -2.40014261525725        2.06372098862041
H           -1.73375333005841       -0.30707284190197        1.76441526334917
H           -2.82947232098019        2.20393868481260       -1.94814691140613
H           -1.40104587929165        3.05912666354829       -1.36224506779790
H           -1.58152011102427        0.09127825780929       -2.06415741408386
H           -0.99082785148304        1.37474381985124       -3.16178948125066
H           -1.13845822883517        3.29038574249870        0.91249693898061
H            0.91934023607960        1.82312970610984       -1.51925844178787
H            2.22079394277194       -0.68944299562605        0.53228088903869
H            2.42470151240562        0.92671723574164       -0.16340035001484
H            3.04983543696184       -0.09961649021538       -2.33959415603472
H            2.93306853978408       -1.70906412245526       -1.60925789006776
H            4.80734909829825        1.48739386353258       -1.57418352571027
H            7.05671779185665        1.74249058938310       -0.67744421869144
H            8.72943527379843        1.81577840552469        1.01066802354778
H            9.33788231740193        1.18769617142891       -0.54956831904531
H           10.14286414534894        0.73263459625465        0.97218874956948
H            7.24352056060388       -4.27728070052692        1.70731945136609
H            5.60090632324833       -3.59262840387350        1.75892745949357
H            6.28906418081791       -4.15405876421095        0.20793623909938
H            4.63170816275862       -2.49948610457765       -0.08298479607696
H            0.07106500190077       -1.81787077404772       -1.92345650205623
H           -0.87522938526954       -1.32892856621355       -0.48923860512636
H            0.69366347160215       -2.11950803878279       -0.29080548727847
H           -5.12856301715708        3.36302607160747       -0.28860195582962
H           -3.09400556077420        1.70024833833950        2.37849500086969
H           -5.48289354905402        1.91377073098970        1.64157094017139
H           -4.93878435252782        3.26306000389193        2.74899228011231
H           -3.95085615646586        5.19464206812255        1.79483830731534
H           -3.21707618869119        5.05276252276381        0.21662466436703
H           -4.84918969026908        5.68472981757436        0.31450961572417
H           -1.98759614351702        2.78066186381359        3.04269249294500
