72
 energy: 15.486339260890 xtb: 6.6.1 (8d0f1dd)
N           -1.93778369835396        2.07311095007357        2.41240262962858
C           -1.73969257483715        2.35792887454706        1.06836314800177
C           -2.17600406889687        1.62679172212537        0.03291987462363
C           -2.96088271317153        0.40320984404812        0.23508713621320
C           -4.11948673460010        0.17138155896059       -0.51318202981159
C           -4.88066996299268       -0.96277684760603       -0.32686787450342
O           -6.03484674965774       -1.25625522781424       -0.99606336974141
C           -6.55202101141826       -0.31516197077800       -1.89992624803032
C           -4.47719005334443       -1.92965694001788        0.62182626300554
O           -5.28791346945563       -3.02462478085768        0.71386901513243
C           -4.97559367194572       -4.01617150718371        1.65595687614786
C           -3.33397662200354       -1.70039691007549        1.36448038233691
C           -2.58560097076735       -0.54498520821578        1.17672985576505
C           -1.89668418245759        2.06112216658038       -1.37448180329518
C           -1.02837384218390        1.03225527937117       -2.14149829259829
C            0.32962535423229        0.93323829455672       -1.56609023849566
N            0.80424090775564       -0.14533300562693       -0.84766443861759
C            2.15887164830711       -0.11352877729053       -0.39124642802916
C            3.18060431247418       -0.67087612005415       -1.41477166287560
C            4.57585732008675       -0.53044679539580       -0.89340202436063
C            5.26936601737638        0.65794575149399       -1.04274797441606
C            6.54955897929583        0.80431485178280       -0.53062550130432
C            7.15970875919973       -0.23892824722597        0.14434116493168
O            8.41407299058918       -0.21117798398912        0.68038171577303
C            9.18518830316973        0.94957468908319        0.51703117849882
C            6.45738677833820       -1.45396713101383        0.31347551671070
O            7.13555618918384       -2.42623234136198        0.98832654432459
C            6.52047628355407       -3.67479909531273        1.16694303470730
C            5.18034918012556       -1.57972515449282       -0.19905945881197
C            0.14243350992287       -1.42124603418884       -0.90615234055831
C           -4.92559764117425        3.74461273702189        0.66887654744584
C           -5.18250313033875        2.94254780252458        1.68040700084209
C           -4.23021018837731        5.05693172497496        0.76654473788832
H           -4.43173816767203        0.91047735534711       -1.23178376669532
H           -6.75719659788804        0.64630179056480       -1.41293076921822
H           -7.48829834234203       -0.74079279051741       -2.26532894661602
H           -5.87339351049818       -0.15354474356552       -2.74843213054132
H           -4.97065358196595       -3.61994639057132        2.67687659144776
H           -5.76552701471861       -4.76321080160914        1.56620560796298
H           -4.00555098524240       -4.48547444849078        1.44638297880509
H           -3.00515997161528       -2.42134801961125        2.09656896208572
H           -1.69174059045792       -0.38767061499671        1.76072659012537
H           -2.83686349343243        2.19948402320105       -1.90939039447753
H           -1.37094105147515        3.01720497764759       -1.36788877610474
H           -1.54021042276547        0.07106881400596       -2.13439864519267
H           -0.94984707143991        1.37426369324876       -3.18058365689853
H           -1.20756589729791        3.28357292737596        0.88452053076143
H            0.92970780771773        1.82641246147264       -1.51645569273169
H            2.22217479451588       -0.69129144994316        0.53468402690039
H            2.42551883622303        0.92122039279157       -0.16577957427758
H            3.06527883833438       -0.11073250369903       -2.34573223399992
H            2.94844012300357       -1.71864217372347       -1.61131216807445
H            4.81357486229316        1.48050625405248       -1.57368062935106
H            7.06655745790245        1.74046711610994       -0.67207393652261
H            8.72924266331319        1.81150221059609        1.01676932793067
H            9.34611656638188        1.18894045012397       -0.53981229805129
H           10.14397502631403        0.73050475425399        0.98470057776054
H            7.24483133220363       -4.28011270736446        1.71005779079198
H            5.60230313079955       -3.59446843646943        1.75960167657804
H            6.29360031592368       -4.15857484371487        0.21005159200909
H            4.63362942975488       -2.50296957573786       -0.08058824339646
H            0.06691102219004       -1.82687527757413       -1.92333000664153
H           -0.86416484454723       -1.32658597523515       -0.49209631206923
H            0.70020833028355       -2.12840832428464       -0.29681581097186
H           -5.23123924849697        3.46415148938720       -0.33578419353821
H           -2.73854660053144        1.48208679575515        2.58871920909002
H           -5.68137259792160        1.99915998359333        1.54523290078444
H           -4.90516237382991        3.21546689644626        2.69159623997098
H           -3.95022207387008        5.30651084688244        1.78353214802453
H           -3.32922533495659        5.02790907772011        0.16000059711623
H           -4.87053815716364        5.84021665185773        0.37127382766709
H           -1.89650580610942        2.88339381061316        3.00378840380209
