72
 energy: 52.863165836993 xtb: 6.6.1 (8d0f1dd)
N           -2.00946500656207        2.25457618610798        2.38231208732916
C           -1.71881757234491        2.46070188400483        1.14088408068013
C           -2.44829607691727        1.85186197607800        0.08631888053529
C           -3.11558910376091        0.55784024891113        0.28037658814743
C           -4.20960127764492        0.21113644033407       -0.52638901547050
C           -4.88150601595302       -0.98586402414909       -0.40448378590728
O           -5.96859185985857       -1.36100600554416       -1.14776200529859
C           -6.49421627705595       -0.43894375206440       -2.06226622240106
C           -4.44753364002125       -1.92785611177523        0.55135267155548
O           -5.18337219864238       -3.08118944631432        0.60537324146957
C           -4.84971180100112       -4.05194162293926        1.55799722906679
C           -3.34197443991007       -1.62126027485775        1.32694531084843
C           -2.69875988912749       -0.39270077168571        1.20485846584917
C           -2.03088036842883        2.17519539907935       -1.30708517922829
C           -1.11810302437247        1.09150819634973       -1.95694138651762
C            0.24213161542812        0.97879252618640       -1.40380603787365
N            0.74886546135949       -0.11919506633159       -0.77964363561646
C            2.09969460451922       -0.09062140451891       -0.29976016507723
C            3.08143760373654       -0.61887166004763       -1.36248969942112
C            4.48945188119421       -0.49154525042324       -0.87512330595279
C            5.19160868317471        0.68675018778594       -1.04432044758512
C            6.48592403917658        0.81931608149344       -0.55815170864822
C            7.09997365511607       -0.22627769216493        0.11252326553661
O            8.36680996430723       -0.21342451768213        0.61672097201814
C            9.14211711669387        0.94269024540167        0.43859589502934
C            6.38677028261433       -1.43173472813542        0.29976191490635
O            7.06348783643135       -2.40852663315299        0.96734127628552
C            6.44243264200650       -3.65149672583407        1.16180804556617
C            5.09722732978681       -1.54364026105325       -0.19031985641978
C            0.06544546120291       -1.38575123665291       -0.79622952670471
C           -4.38361100944772        3.38436336767517        0.59932590016487
C           -4.70652131183053        2.65722883745507        1.81626353784752
C           -3.88922255998726        4.77693913463933        0.68135837414255
H           -4.54041830177807        0.93217756809968       -1.25565103257299
H           -6.79714384891908        0.48888130537781       -1.56951411571727
H           -7.37289958367227       -0.91565135238698       -2.49240735279241
H           -5.78581717676523       -0.19789325423125       -2.85886133697002
H           -4.93345513443204       -3.65787469059035        2.57727299062675
H           -5.57232259062002       -4.85673321586597        1.42430241130980
H           -3.84442543427421       -4.45461085170330        1.40916608994306
H           -2.98719999553345       -2.33186051896954        2.05953423531044
H           -1.87648409127387       -0.17315006766258        1.86139480931861
H           -2.88463966532701        2.26917362688240       -1.97978727989699
H           -1.49918143374768        3.12541398953736       -1.30801266444836
H           -1.64586462276093        0.14413740048455       -1.89890747303823
H           -1.03945794189382        1.40479730824225       -3.00612923542634
H           -0.77799113306768        2.90234746460162        0.81034999612313
H            0.82222150604192        1.88897691334159       -1.31074013997136
H            2.21148305779351       -0.69216934577904        0.61010295541445
H            2.37096437439013        0.93830556552987       -0.06164109571901
H            2.94399920362510       -0.03849253549376       -2.27669608100421
H            2.83931688230195       -1.66114016251774       -1.57722464614697
H            4.73743040461533        1.51211169991591       -1.57025872060519
H            7.00718361785284        1.75028469029003       -0.71719949108559
H            8.69977803661887        1.81122256604992        0.93930324887169
H            9.28733679661876        1.17153376206327       -0.62291110359246
H           10.10722549241688        0.72221315683784        0.89106922733979
H            7.17098285420382       -4.26631570538243        1.69020561761273
H            5.53906592590538       -3.56100188304795        1.77324131263217
H            6.18991681924876       -4.13130266587151        0.21006505861149
H            4.54688682919332       -2.46222465233562       -0.05695823801839
H           -0.04873208112769       -1.76434217235817       -1.82122587065488
H           -0.92530965708532       -1.29851714863203       -0.34363228606955
H            0.63688151594263       -2.12005761495321       -0.22806262865467
H           -4.98230824823991        3.19244969111244       -0.28190506984689
H           -3.74208067906727        2.00913060765691        2.14565736174167
H           -5.53274934680757        1.96311274321843        1.63871380984975
H           -4.91197254779502        3.27787112049812        2.66933486041447
H           -3.45872375723189        4.99995608040760        1.64982819457257
H           -3.12653417562863        5.04339053368272       -0.02876277052765
H           -4.73650901402243        5.43839799879134        0.47622630911877
H           -1.46676149563128        2.76520464227642        3.07530988030384
