72
 energy: 8.330252270654 xtb: 6.6.1 (8d0f1dd)
N           -1.86523615248695        2.64446506709793        2.38921729230385
C           -1.67642279334169        2.35373210822514        1.17965222371517
C           -2.73569142941850        2.05923171057819        0.16537034523489
C           -3.23037830665647        0.61919326606504        0.31294469163417
C           -4.25966353589571        0.22998528653831       -0.54917130750447
C           -4.86313813897453       -1.00814346637548       -0.46991541490675
O           -5.89637254957422       -1.43006180513658       -1.25708368571637
C           -6.44548609748571       -0.52586489129945       -2.17931796356636
C           -4.42270949548885       -1.93725714206044        0.49660229595045
O           -5.09197278087876       -3.12799317085012        0.50532871237481
C           -4.75874027813806       -4.07813074409994        1.48221031444900
C           -3.37922534393780       -1.57819859241086        1.33005800153103
C           -2.79227213113797       -0.31404981169429        1.23875726799080
C           -2.14642864827785        2.25457252961484       -1.25064043718429
C           -1.20888003814573        1.15326714188319       -1.79952634498108
C            0.11760380415966        1.08781565704336       -1.15050087474958
N            0.68995372577960       -0.08260402321998       -0.64758663133905
C            2.05059977122451       -0.06530518370101       -0.22498442873381
C            3.00854713856072       -0.58049797355178       -1.32013290963878
C            4.42353937794265       -0.46281238849243       -0.85952806343926
C            5.13375688225609        0.70909423918354       -1.04450263946609
C            6.43564900480708        0.83117418133191       -0.57997367907679
C            7.04804044188210       -0.21713925773137        0.08562180029025
O            8.32255770257045       -0.21289639567227        0.57129207941445
C            9.10553990273620        0.93571213582514        0.37883895023550
C            6.32789436879385       -1.41472933899194        0.29050456808775
O            7.00795822855650       -2.39529322028164        0.95033518258912
C            6.37928907580379       -3.63236930717744        1.15758276921842
C            5.03117974213240       -1.51757940989144       -0.17708879283028
C            0.00802494045533       -1.34411350775794       -0.70512372685951
C           -4.05206856042616        3.13574292803207        0.53662084979054
C           -4.60399430236531        2.61879688442554        1.87185162771720
C           -3.63694000889730        4.61788619332319        0.61685822897105
H           -4.59937962802896        0.93499667656880       -1.28982485683318
H           -6.82434579919507        0.37440379264282       -1.68680163650131
H           -7.27648551183487       -1.05298269631980       -2.64452412397701
H           -5.72356435581712       -0.23406470533790       -2.94783777315258
H           -4.90914872048997       -3.68495855853257        2.49332445678297
H           -5.43531046279066       -4.91554555489605        1.31684033561480
H           -3.72754532413756       -4.42800498666276        1.38150831258733
H           -3.02792794409909       -2.27330126488287        2.07961065465983
H           -2.00748956047971       -0.07005397323057        1.93532392031165
H           -2.96743246239207        2.34128070262039       -1.95787344642141
H           -1.58420198994568        3.18998062808324       -1.25402610114183
H           -1.72273788690846        0.19492690514199       -1.75372320365464
H           -1.04931979765681        1.39511748767063       -2.86046272946715
H           -0.68297377451420        2.24150838894603        0.73033829293909
H            0.73455098661135        1.96401636606944       -1.12447126086514
H            2.17128347433867       -0.68106304597599        0.67415153109691
H            2.33098850132519        0.95935927428938        0.02367153818129
H            2.85355796450895        0.01392254007128       -2.22172411180009
H            2.75958149292552       -1.61879030121879       -1.54421818716017
H            4.67919225606331        1.53753368982422       -1.56581013550053
H            6.96562502087257        1.75443535804491       -0.75320134128124
H            8.67471000558305        1.81092336001676        0.87829943296675
H            9.24344536165027        1.15712032542948       -0.68506123207750
H           10.07191287320414        0.70747617950781        0.82525850459877
H            7.11302692688295       -4.25158003272188        1.67271887778732
H            5.48805243640767       -3.53398935802054        1.78596707558961
H            6.10513671092331       -4.11140558846946        0.21135813455513
H            4.47395207503649       -2.42996801539213       -0.03060446697656
H           -0.13572778640366       -1.69225658509540       -1.73761702223771
H           -0.97168670734662       -1.27025723480859       -0.22668621118399
H            0.59734044967860       -2.08925738314564       -0.17127160959919
H           -4.80584857332740        3.06566664748019       -0.24694422408137
H           -3.71736127399544        2.28518765517395        2.44968685202153
H           -5.25597317153223        1.77703045833900        1.76132249262019
H           -5.11670776310676        3.41253908098267        2.42691893200290
H           -3.01105164983357        4.83359383017028        1.47858966363007
H           -3.09295317512204        4.93888662304363       -0.25466658885441
H           -4.49729143189789        5.29244501310952        0.67214837836936
H           -1.02019437353513        2.78814619117493        2.92667409676316
