72
 energy: 3.683590755210 xtb: 6.6.1 (8d0f1dd)
N           -1.80598622486498        2.67776277517692        2.37326039787750
C           -1.65739201116803        2.32322328454739        1.17540426449091
C           -2.74789681058104        2.06505182377385        0.17791887053837
C           -3.24540483799080        0.62546888735305        0.31713836127285
C           -4.26636364066144        0.23258197252827       -0.55339965617974
C           -4.86032273747365       -1.01073895129559       -0.47994922161471
O           -5.88361026004560       -1.44032366496422       -1.27483526635216
C           -6.43703352172061       -0.53987174330698       -2.19846691933054
C           -4.41863008033086       -1.93838185623284        0.48789155130667
O           -5.07579035934631       -3.13509018287686        0.48935780384954
C           -4.74302308218393       -4.08222183549100        1.46968142451820
C           -3.38617199467747       -1.57227749558541        1.33131468425185
C           -2.80768446579066       -0.30454278433921        1.24543006597600
C           -2.15751431586506        2.26318301927074       -1.23890747226255
C           -1.21896716123203        1.15936777973545       -1.77536095255177
C            0.09753727069095        1.09954878440529       -1.10412415001438
N            0.67935009949663       -0.07493696640809       -0.62926946532192
C            2.04216159688291       -0.05986823401651       -0.21303565722713
C            2.99577142123010       -0.57376403146456       -1.31301192175477
C            4.41240450356935       -0.45776447376243       -0.85598501100032
C            5.12387544700183        0.71286797299277       -1.04412131333227
C            6.42726630131502        0.83312895782957       -0.58372534946328
C            7.03939063873334       -0.21566894960456        0.08088253202548
O            8.31470070894762       -0.21267081239488        0.56375633332665
C            9.09939788680305        0.93449640567579        0.36884909793462
C            6.31805410571398       -1.41223070017947        0.28875105829157
O            6.99860935668301       -2.39322184622751        0.94702040704662
C            6.36860474066778       -3.62936209895912        1.15660676892373
C            5.01998163480647       -1.51338549456875       -0.17478577599037
C           -0.00187496247377       -1.33662537929856       -0.69017361009698
C           -4.02130545408497        3.12003030562234        0.53817128389252
C           -4.57645918650231        2.63977865716257        1.88971078764223
C           -3.59681742663648        4.60103771532185        0.60450551244282
H           -4.60875917206361        0.93620895779387       -1.29420795610720
H           -6.82849177033132        0.35531952563623       -1.70624299240913
H           -7.25943112011629       -1.07528554270915       -2.66947190355688
H           -5.71367012777658       -0.23989552345031       -2.96280514397622
H           -4.90486267025297       -3.69022235510769        2.47940104390101
H           -5.41152435205748       -4.92487698900741        1.29889108663128
H           -3.70786774847946       -4.42324350717500        1.37701929204477
H           -3.03494841181243       -2.26423791431272        2.08333818283484
H           -2.03002061526715       -0.05453031734550        1.94799644453057
H           -2.97845938965562        2.34907124906298       -1.94715249183290
H           -1.59690092035681        3.19989812516966       -1.24412289280440
H           -1.73610913224631        0.20248624871151       -1.73055554690238
H           -1.04345893939927        1.39287921516128       -2.83541747821294
H           -0.67998778297550        2.13846896556670        0.70965974323385
H            0.72056493054437        1.97124520434708       -1.09436857163678
H            2.16292323152260       -0.67876706978236        0.68368312639720
H            2.32558801302890        0.96345244287479        0.03845297218591
H            2.83865907428469        0.02287544641082       -2.21279584138309
H            2.74607876046803       -1.61149311390390       -1.53876669334828
H            4.66937984431566        1.54181627222250       -1.56490044072918
H            6.95859398581527        1.75509513498150       -0.75928142515216
H            8.67069366820815        1.81080216588775        0.86809464413008
H            9.23624111527652        1.15455352803543       -0.69543500003538
H           10.06588081622105        0.70480592402552        0.81434738470168
H            7.10324805161347       -4.24921744445544        1.66945484341370
H            5.47955075454233       -3.52952698378657        1.78798308471143
H            6.09079781373266       -4.10825742365635        0.21138598637650
H            4.46168840047832       -2.42482428608456       -0.02628949061101
H           -0.14982725850244       -1.68020347875033       -1.72320319627747
H           -0.97945806430345       -1.26544094094494       -0.20693519314265
H            0.59082814314170       -2.08288881159010       -0.16216373219003
H           -4.78192560474258        3.04681392840555       -0.23836171996415
H           -3.68953885976880        2.38227548226639        2.50618940274213
H           -5.18770444832073        1.76349141566167        1.79474567104392
H           -5.15387397936782        3.43064454344847        2.38513293306208
H           -2.94068027253840        4.80787411714812        1.44517036724115
H           -3.08496785197523        4.92097762223485       -0.28861374142646
H           -4.45340590274934        5.27412688761377        0.69764687800933
H           -0.94584841440131        2.78540919200983        2.89667534617660
