72
 energy: -3.054765655104 xtb: 6.6.1 (8d0f1dd)
N           -1.68456131961524        2.72631872490432        2.32312820646947
C           -1.61791837981320        2.25699731366803        1.16002903965653
C           -2.76094635436774        2.07362433038435        0.19945040121849
C           -3.27352156192305        0.63724866129638        0.31721507568239
C           -4.28111621125182        0.23786811880620       -0.56445013685497
C           -4.85565212700236       -1.01568128605553       -0.50066262547204
O           -5.85850451206771       -1.46039288213240       -1.31068814456271
C           -6.42025760975316       -0.56737276322876       -2.23703660344280
C           -4.41071697164276       -1.93982103393320        0.46989467080123
O           -5.04263581992831       -3.14839578483678        0.45782791236552
C           -4.71111225636293       -4.08964287388521        1.44503402245394
C           -3.40063162328776       -1.55906764966486        1.33282465115593
C           -2.83942553632099       -0.28465017580865        1.25571423601884
C           -2.17473623624021        2.28084798653555       -1.21809443867573
C           -1.23752028991924        1.16941264603261       -1.72984618489609
C            0.05891111228322        1.11639255462432       -1.01550627934683
N            0.65971659352799       -0.06207415703403       -0.59758162055228
C            2.02565761416239       -0.04902531060583       -0.19023270489350
C            2.97082506229756       -0.56063968300328       -1.29912575170375
C            4.39050767962228       -0.44783817779562       -0.84859958660311
C            5.10430322171718        0.72030992773066       -1.04317063374550
C            6.41057979334777        0.83707137186744       -0.59092857187438
C            7.02204471861912       -0.21269279319893        0.07184030079784
O            8.29887708149123       -0.21208568019995        0.54926256099753
C            9.08718239413552        0.93196079158012        0.34900925746236
C            6.29840568382390       -1.40726470110396        0.28576855825500
O            6.98002882955782       -2.38896811809565        0.94097427812104
C            6.34756300335889       -3.62334383254770        1.15521912901433
C            4.99765562182054       -1.50513353684197       -0.16958029068685
C           -0.02161215179023       -1.32276100821028       -0.66109093927642
C           -3.96296337186731        3.09851374635780        0.54778890819299
C           -4.53772345111466        2.69633684790791        1.91391641977995
C           -3.51649626558485        4.57033962204523        0.58093034321892
H           -4.62935059346927        0.93898744127982       -1.30482364382170
H           -6.83638194113953        0.31723666545952       -1.74511477801287
H           -7.22521204159235       -1.11875648059143       -2.71971098408979
H           -5.69426626058337       -0.25110368562218       -2.99300095477444
H           -4.89595873771714       -3.70027616393269        2.45171494680816
H           -5.36348107868421       -4.94247789729001        1.26362252700718
H           -3.66849641140769       -4.41336397942351        1.36853812292500
H           -3.04924787307376       -2.24468230328199        2.08981754358751
H           -2.07632969989864       -0.02184447323189        1.97056480963521
H           -2.99798186854923        2.36347468944415       -1.92464922034321
H           -1.61966629913364        3.22068805990778       -1.22769389318135
H           -1.76391608939088        0.21709949515752       -1.68618670510239
H           -1.02963544288158        1.38672665650727       -2.78680997164851
H           -0.68002307268761        1.93809551775217        0.67338944664882
H            0.69135995532108        1.98206015388426       -1.03541826392530
H            2.14585173506904       -0.67362345520179        0.70207739113382
H            2.31540374701999        0.97175131499355        0.06701051005128
H            2.80929613292054        0.04022758656724       -2.19547414405013
H            2.71938455036992       -1.59726514284280       -1.52783127002333
H            4.64996345205092        1.55013686896370       -1.56320456723584
H            6.94453499034008        1.75648017585032       -0.77104814824941
H            8.66307110766916        1.81065205278454        0.84768145986244
H            9.22183189749454        1.14904180014539       -0.71611875857919
H           10.05389189951021        0.69925729042477        0.79257347847101
H            7.08422360321651       -4.24433436594413        1.66334076000792
H            5.46294452711763       -3.52085849969808        1.79271566035525
H            6.06250831302409       -4.10194150760108        0.21201098968356
H            4.43714505495963       -2.41464986124237       -0.01710181407169
H           -0.17834694352965       -1.65722637692007       -1.69477467518688
H           -0.99467352377335       -1.25578658500415       -0.16774027220323
H            0.57781912024706       -2.07060474464307       -0.14451440607583
H           -4.73214863823136        3.01017937764482       -0.21880189294030
H           -3.68352316030840        2.58788246279138        2.60426018676494
H           -5.05947186571544        1.75470696665518        1.86679070895823
H           -5.22621036116007        3.45945289174636        2.28873356256072
H           -2.80202235827089        4.75761467491732        1.37638700441962
H           -3.06950737280069        4.87990856394978       -0.35301497188347
H           -4.36249900640511        5.23880181785577        0.74541777460489
H           -0.80511429960139        2.77967276182936        2.82921218378856
