72
 energy: 19.026524010877 xtb: 6.6.1 (8d0f1dd)
N           -2.07248917764443        2.07773261152429        2.39755703443934
C           -1.75540635210404        2.36388126498622        1.06971184821375
C           -2.13614614563919        1.61863272315430        0.02167612808971
C           -2.95543057337374        0.41427649441020        0.21919607524776
C           -4.12150684699969        0.18235140265753       -0.51957033460445
C           -4.88731084305887       -0.95318191282401       -0.32360569531199
O           -6.04784738149439       -1.25218586743026       -0.98543453914853
C           -6.56545704528433       -0.31203159983438       -1.89007454363000
C           -4.48108301512470       -1.91932330270800        0.62466713920360
O           -5.29416908135419       -3.01684112493339        0.72579611598559
C           -4.97999957747920       -4.01142443020705        1.66479705437413
C           -3.33056190729169       -1.68911031434508        1.35876705717637
C           -2.59253627537273       -0.52757264534383        1.16744746824405
C           -1.89364762212692        2.07552145627426       -1.38681855942962
C           -1.03027151090124        1.03926315092518       -2.13624890692269
C            0.29523912356572        0.96845340713698       -1.49403524334411
N            0.82111770414628       -0.15163964632770       -0.88672018957162
C            2.16416912056685       -0.10898279424672       -0.40633220101689
C            3.18871769776082       -0.67308730460223       -1.42264513651174
C            4.57998140885339       -0.53000914571218       -0.89264606312579
C            5.27397930424524        0.65826958685540       -1.04056781394649
C            6.55524920711493        0.80403918059357       -0.52854852183475
C            7.16428034162796       -0.23756606555496        0.14779363485129
O            8.42401290538758       -0.21207213277386        0.67869101703255
C            9.19191709256862        0.95378475244911        0.52789087401655
C            6.46452446236923       -1.45311111663166        0.31297244863731
O            7.14721846835676       -2.42558727163207        0.98482190453525
C            6.53802482241555       -3.67739791101141        1.16359322754133
C            5.18991754840628       -1.58059853140122       -0.20344221621839
C            0.14778999951698       -1.41837970074672       -0.91916065852536
C           -4.85217186870991        3.68879565164275        0.69752240456810
C           -5.12897234478281        2.92976628889240        1.73448017809677
C           -4.18882957392607        5.01616037373640        0.77835654301691
H           -4.44356559341527        0.92105052745003       -1.23513018466155
H           -6.75884996360932        0.64660174715767       -1.39626747643328
H           -7.50883760663578       -0.72181331121545       -2.24852844646914
H           -5.89563568998659       -0.15375136925852       -2.73906846225304
H           -4.96130995152659       -3.62176829394497        2.69087760002629
H           -5.77726709342149       -4.74968411409943        1.57669576622896
H           -4.02534472893561       -4.49508817402611        1.44485175319851
H           -2.99009468509169       -2.41196989432282        2.08346717120377
H           -1.70167183282272       -0.35138134270499        1.74348844050433
H           -2.83694867783819        2.20468994049720       -1.92274310225273
H           -1.37809870705402        3.03839085799936       -1.36780809297504
H           -1.56362845074474        0.08747913951733       -2.10956333264964
H           -0.94866664861474        1.36610992878069       -3.18349290896204
H           -1.27104306761102        3.33864313614126        0.95406992922235
H            0.93880249150819        1.81775085337213       -1.55150999429997
H            2.23083525804139       -0.68439228802279        0.52392129790735
H            2.43279063519281        0.92602291034541       -0.17970780034810
H            3.07902814159532       -0.11735412274298       -2.35612678759157
H            2.95906200678252       -1.72194417766223       -1.61735492185409
H            4.82601070886383        1.48182323512230       -1.57472702633118
H            7.07155348213450        1.74065149630886       -0.66746637873479
H            8.73616785918874        1.81429496878691        1.03095699380501
H            9.35344104653208        1.19463516208447       -0.52910499566711
H           10.15041137100800        0.73333732598169        0.99504669791118
H            7.26354994979455       -4.27834062219715        1.71042528613357
H            5.61778568641436       -3.60149323570094        1.75283931532686
H            6.31679409868566       -4.16116059761406        0.20583610535689
H            4.65157820670305       -2.50860955036055       -0.08893339391115
H            0.07511628980407       -1.81258841574620       -1.93810550524467
H           -0.86200151254468       -1.33674430452565       -0.51184211666575
H            0.70604773330533       -2.12664228042490       -0.31058122343537
H           -5.15188914240353        3.41443320334903       -0.30994576595533
H           -2.93426185783571        1.55719684572688        2.46944520750174
H           -5.58171697688348        1.97083345963530        1.60533819211471
H           -4.95245978338622        3.25729727924723        2.74908677543133
H           -4.01875287204416        5.26645193254049        1.82102103673583
H           -3.26431180939774        5.02966645287805        0.20233282500613
H           -4.84772865647219        5.77040245387763        0.35113101690795
H           -2.05162066479862        2.87748408608837        3.00485473813614
