72
 energy: 42.996497736355 xtb: 6.6.1 (8d0f1dd)
N           -2.14000225342839        2.17518777710189        2.38563428815868
C           -1.74776318619836        2.43775406379648        1.09844745215979
C           -2.35579510362474        1.78947085055071        0.07259378152875
C           -3.10090864285776        0.54019290409829        0.27815528549668
C           -4.20036312585180        0.20991944580749       -0.52038610837136
C           -4.88382652745597       -0.98239970075612       -0.39348070201543
O           -5.97829835130512       -1.34779514738316       -1.12799226682426
C           -6.50288253214748       -0.42541213104609       -2.04292163648751
C           -4.45122971612446       -1.92694482428424        0.55960874773572
O           -5.19768344919942       -3.07110309459158        0.62305516686712
C           -4.86538004598143       -4.04782940163132        1.57066287228024
C           -3.33629522117608       -1.63276701247031        1.32707043798533
C           -2.68358147069792       -0.41227428852464        1.20020873909110
C           -2.00337242839516        2.15718170081713       -1.32451150856939
C           -1.10714748539596        1.08804926777609       -1.98837778307525
C            0.26321269222571        0.97443885904686       -1.44987626575471
N            0.76046773754516       -0.12685967128074       -0.78851688278070
C            2.10660787519213       -0.09421819058270       -0.31368530673226
C            3.09725819256688       -0.62612207805711       -1.37124340984227
C            4.49999509143626       -0.49699815663708       -0.87959140494184
C            5.20162542973678        0.68388516613810       -1.04412794914782
C            6.49340405162152        0.81817991010261       -0.55496002664697
C            7.10730117962982       -0.22746680341666        0.11632890613673
O            8.37510392119437       -0.21240201937829        0.62572354452247
C            9.14811762175481        0.94401951794645        0.44810343094913
C            6.39550486215715       -1.43357194484226        0.30136061314337
O            7.07357402103559       -2.41079428684971        0.97078608340362
C            6.45337777454816       -3.65381287994801        1.16289394055241
C            5.10824737086861       -1.54805632304950       -0.19119262296275
C            0.07646223447605       -1.39024112052437       -0.81157173818861
C           -4.53089943842528        3.47340946984885        0.64257576801145
C           -4.88482662581067        2.81004642219209        1.74213689367163
C           -3.93126392262731        4.81640491481590        0.69009851987326
H           -4.52699969242636        0.93141355990521       -1.25017418258270
H           -6.79501108808603        0.50698938337252       -1.55102433764560
H           -7.38859517788603       -0.89648480598071       -2.46509720614861
H           -5.79850195608721       -0.19445001218536       -2.84571343033140
H           -4.93862908959916       -3.65482008965084        2.59158737407725
H           -5.59655427115674       -4.84590766152823        1.44168286596797
H           -3.86532287795400       -4.45939008813878        1.41360782055723
H           -2.98194967648238       -2.34617514222851        2.05644725173469
H           -1.85181570984649       -0.19934120881801        1.84769544335839
H           -2.87677501337376        2.25804125322156       -1.97178679043799
H           -1.48492425569821        3.11502699132165       -1.31495646115518
H           -1.63154348811345        0.13890855771770       -1.92435344126960
H           -1.03343605544520        1.40238205863439       -3.03716324937330
H           -0.82953019868872        2.97325797964496        0.83484454592013
H            0.83938421468736        1.88155406010940       -1.33810395453296
H            2.21444678708047       -0.69282423984557        0.59840805977469
H            2.37852508596172        0.93602742245334       -0.07755227048659
H            2.95799728392562       -0.04720768700186       -2.28614789982289
H            2.85263241012533       -1.66864808893266       -1.58232104070731
H            4.74708355440982        1.50833736423604       -1.57148736336883
H            7.01422558851754        1.74973427638061       -0.71224772370583
H            8.70421091779900        1.81210416889888        0.94864735036917
H            9.29455609235963        1.17416335784438       -0.61319900870558
H           10.11310630580368        0.72466710611445        0.90175857480023
H            7.18147145081244       -4.26746264752931        1.69337964316343
H            5.54796312503125       -3.56499007497354        1.77193451508575
H            6.20402470100202       -4.13448854612326        0.21059762561286
H            4.55864109367546       -2.46746574316667       -0.06012659941382
H           -0.03146884303677       -1.77483205183824       -1.83620381211046
H           -0.91754177726285       -1.30301233720392       -0.36622183391705
H            0.64363160815926       -2.12281701984489       -0.23716130169310
H           -4.99683294646229        3.21579709990909       -0.29419112114509
H           -3.28478656186183        1.98528802356504        2.27775635926105
H           -5.58068403424012        1.99197032104543        1.63153757501682
H           -4.84403471132795        3.23548887522223        2.71543539302247
H           -3.53251626301366        5.03231252385110        1.67369886759098
H           -3.14185825535286        5.05133179234286        0.00082192817493
H           -4.76644915571850        5.47735548146705        0.44668294960778
H           -1.61740287064674        2.71905580135766        3.08295984366458
