72
 energy: 46.565761166550 xtb: 6.6.1 (8d0f1dd)
N           -2.00813319791565        2.31102113568016        2.41225888348612
C           -1.72589824728900        2.45195526532350        1.16908259584307
C           -2.52155559613469        1.89923840499824        0.10415961618247
C           -3.13885691925291        0.56987771981152        0.28816282976422
C           -4.21959721489984        0.21276471063875       -0.53037651824503
C           -4.87852560563743       -0.99156059207388       -0.41588061292574
O           -5.95739050272293       -1.37439636370665       -1.16626625677961
C           -6.48565379403530       -0.45418194694631       -2.08168285713478
C           -4.44347668005101       -1.93052989124689        0.54259155235933
O           -5.16925437472841       -3.09036707591848        0.58822116954185
C           -4.83595368817349       -4.05760818635787        1.54490811434882
C           -3.34777615204972       -1.61391818916500        1.32755359655713
C           -2.71476627664059       -0.37780173071472        1.21084073003296
C           -2.05452848626198        2.18889998693719       -1.29148015468030
C           -1.13616457296300        1.10210520529775       -1.92706045329279
C            0.22231160052544        0.99809141017952       -1.36563011865976
N            0.74008700333225       -0.11427655888716       -0.75775855843052
C            2.09181494280052       -0.08715809570904       -0.28678117842428
C            3.06948160900675       -0.61258766914704       -1.35530029354339
C            4.47853100746061       -0.48673446605783       -0.87315617840298
C            5.18187626663607        0.69063282802550       -1.04452565620619
C            6.47730645132359        0.82160617902333       -0.56155915563688
C            7.09110351851697       -0.22439338842900        0.10835702579616
O            8.35954097293336       -0.21337401614831        0.60883795109895
C            9.13577431164605        0.94165361977827        0.42868027209348
C            6.37680313237962       -1.42823706553997        0.29844022375406
O            7.05399262379715       -2.40579593945104        0.96491643911178
C            6.43184689126269       -3.64781537882305        1.16126950327500
C            5.08612962047165       -1.53881333471041       -0.18816860525057
C            0.05585377551976       -1.37922071971942       -0.78069445027970
C           -4.30925700573650        3.33218137293344        0.57900146845643
C           -4.70045351141699        2.64665589732579        1.82723156781716
C           -3.84337889591352        4.74739350757354        0.67035470715912
H           -4.54964847723079        0.93101768146330       -1.26303085837025
H           -6.80125784486540        0.46933903318523       -1.58866605766198
H           -7.35671747008370       -0.93902711119983       -2.51817519138981
H           -5.77401701121811       -0.20439749804182       -2.87290646513767
H           -4.93085172093070       -3.66360892179996        2.56308266879115
H           -5.55144297762310       -4.86758913204958        1.40533354305727
H           -3.82611318486322       -4.45183996963112        1.40409445347657
H           -2.99285255464875       -2.32196960332402        2.06245291160842
H           -1.89805527230103       -0.15526679000845        1.87438778317733
H           -2.89891245959170        2.28210630719459       -1.97628409243006
H           -1.51466183627842        3.13556721905182       -1.29574201362772
H           -1.65904203716129        0.15157926927339       -1.87201929518964
H           -1.05570141528528        1.40476673870904       -2.98073870414928
H           -0.75727256656740        2.79812405913622        0.80973177159251
H            0.80571129371117        1.90466440188368       -1.27932187618003
H            2.20711508780827       -0.69005569535496        0.62241286950346
H            2.36359902990584        0.94151844713578       -0.04758615966893
H            2.92858901104739       -0.03004035472049       -2.26741657441941
H            2.82600479467388       -1.65415230340885       -1.57174284529095
H            4.72737579955972        1.51645363037577       -1.56940521787094
H            6.99994242648526        1.75137233868977       -0.72298463996247
H            8.69533059463527        1.81130352028139        0.92927368050175
H            9.27961274969144        1.16952573657404       -0.63321697084163
H           10.10125762702504        0.72008782240561        0.87992118745591
H            7.16123988704635       -4.26360585800143        1.68737166077551
H            5.53040045286506       -3.55633334742473        1.77548380365069
H            6.17575582464917       -4.12742062601886        0.21033450674280
H            4.53448150137125       -2.45620253060312       -0.05240662898173
H           -0.06434051990858       -1.75303615770163       -1.80705832632434
H           -0.93317618229441       -1.29344453873116       -0.32383358687842
H            0.62953173512113       -2.11589902573617       -0.21775385198126
H           -4.95178459979779        3.17327236160416       -0.28007866710752
H           -3.82439645550310        1.99653061230821        2.16754274434335
H           -5.51405409825142        1.94996636809748        1.64665413114604
H           -4.93064432613446        3.32538771220298        2.64026306833619
H           -3.37841388168976        4.96977123623258        1.62431323792918
H           -3.11249310064340        5.02774632443160       -0.06642680392169
H           -4.69717662656512        5.41615973337650        0.51620994985364
H           -1.38567224358693        2.78087142809835        3.06557428134295
