72
 energy: 23.163778632736 xtb: 6.6.1 (8d0f1dd)
N           -2.03032532002796        2.04491166998173        2.36203685145346
C           -1.72854099670832        2.42192270951242        1.05717493886148
C           -2.23185178047382        1.71005207028872        0.03636302585037
C           -3.02404624472369        0.48280948233311        0.24360365777777
C           -4.16250923698875        0.19656033748122       -0.51850346323241
C           -4.89157399561399       -0.96679567011018       -0.35338492551216
O           -6.01871582697229       -1.30222744256035       -1.05428864324204
C           -6.53563854217658       -0.36941818479186       -1.96570846236964
C           -4.46538336839169       -1.92250580215124        0.59480281541270
O           -5.25400201554788       -3.03403959009585        0.68961472877860
C           -4.92451379025162       -4.02945953840014        1.62191350231184
C           -3.32186567492597       -1.66182499495871        1.33082995573450
C           -2.62718701891994       -0.46583777292578        1.17203584477860
C           -1.93172167017743        2.11226110885476       -1.35964213847962
C           -1.06113682388130        1.04919841474986       -2.07811087015630
C            0.33565840996852        0.91166027284138       -1.61082747308880
N            0.78762263680129       -0.13816333929205       -0.83511018016462
C            2.13556083689918       -0.10366916197101       -0.36411803285195
C            3.14284307856784       -0.65089666485848       -1.39897501217802
C            4.54079227312621       -0.51455175541844       -0.88589961882393
C            5.23905519816553        0.66936436301568       -1.04352622463492
C            6.52627250427400        0.80922370568893       -0.54156667473339
C            7.14099596874634       -0.23336589198565        0.13348764054842
O            8.39983497446253       -0.20853397426607        0.66352055187666
C            9.17174248509509        0.95033614313726        0.48907020071345
C            6.43414664709605       -1.44519901065994        0.30712215428862
O            7.11202646743435       -2.41844584056293        0.98086960810171
C            6.49635274486441       -3.66606035712596        1.16540156383586
C            5.15107695393787       -1.56498544888593       -0.19696494127113
C            0.11468952661382       -1.40817508064255       -0.87029171588974
C           -4.70774754745365        3.57378879077609        0.69405558925425
C           -4.97819687717828        2.84514858052748        1.76246958747059
C           -4.09808013042894        4.91108036127553        0.74282020863342
H           -4.49232340733539        0.93121513254537       -1.23222549793149
H           -6.77367794368757        0.57749535110764       -1.47244171934555
H           -7.45189900347977       -0.80799936320957       -2.35808392062326
H           -5.84638825594731       -0.17135985053106       -2.78916222264450
H           -4.95239084137128       -3.63739760641912        2.64597854757893
H           -5.68935651513058       -4.79840512892745        1.51025730534792
H           -3.94777929499922       -4.47972425409121        1.43086742454066
H           -2.96367971302295       -2.38644784326128        2.04668209052573
H           -1.76936716186165       -0.26651130271510        1.78875184083384
H           -2.83022529082456        2.21447647641758       -1.97020641662400
H           -1.42902336479722        3.07842149587845       -1.35281444982828
H           -1.59971853520149        0.10497728321540       -2.02045895565555
H           -1.00392069127596        1.39094233990168       -3.12163039464361
H           -1.00656181681624        3.21910424825701        0.87648100539641
H            0.89066222334406        1.82978649163705       -1.46303005956725
H            2.21527330120748       -0.69335296175869        0.55203572390086
H            2.40871683169233        0.92863307477779       -0.13456026194852
H            3.01872265664252       -0.08237135454770       -2.32224239304663
H            2.90593411513692       -1.69631875789029       -1.60075559215676
H            4.78663464959086        1.49295356167519       -1.57439764539074
H            7.04258530876031        1.74505485724467       -0.68894683964074
H            8.72178954265955        1.81481458061353        0.98994139698238
H            9.32358673319113        1.18276297982973       -0.57106140010536
H           10.13407554812254        0.73089486142404        0.94785386181115
H            7.22273071045144       -4.27432739597172        1.70369348648214
H            5.58341436947267       -3.58324229503580        1.76403717756160
H            6.26085284521358       -4.14707231878052        0.20975231126015
H            4.60743957154776       -2.48937661112044       -0.07448054796147
H            0.03690295168509       -1.80043985777859       -1.89546702535846
H           -0.88885399958935       -1.32127670993573       -0.44754649303779
H            0.67770315647370       -2.12346744024221       -0.27453976302093
H           -5.10502967619462        3.30661686662570       -0.27573940081883
H           -3.02581631057684        1.83282518189129        2.34205689109486
H           -5.50210944938235        1.91103120811486        1.65582635293616
H           -4.81860405323101        3.21777748426562        2.76166002882700
H           -3.81803553591740        5.14618975312584        1.76145277378336
H           -3.20011247584322        5.08840822617489        0.17116809143364
H           -4.86453617572886        5.58955346342855        0.34523961021711
H           -1.82886368563377        2.74560432985097        3.06183017837304
