72
 energy: 25.395593261452 xtb: 6.6.1 (8d0f1dd)
N           -2.04854858991780        2.05444249074661        2.35333113932858
C           -1.73659432977213        2.43144523835140        1.06126404861936
C           -2.26252917622071        1.73105332743987        0.04140378999816
C           -3.04391435688071        0.49875849287712        0.25118362021479
C           -4.17353342807072        0.20077107798052       -0.51771766669406
C           -4.89058230279198       -0.97102072250118       -0.36304395787835
O           -6.00912542419600       -1.31491632944351       -1.07283390780737
C           -6.52717370591276       -0.38374913272823       -1.98450274132922
C           -4.46129647582770       -1.92406187689264        0.58524989362347
O           -5.23953501587262       -3.04417686212714        0.67248485285254
C           -4.90964719805070       -4.03440315458239        1.60900612529947
C           -3.32231444814266       -1.65429213951323        1.32633352260276
C           -2.64066224752575       -0.45057550188722        1.17749075871837
C           -1.95121315599717        2.12371694920379       -1.35341111037378
C           -1.07343020229888        1.05884787691473       -2.05691879090605
C            0.31723771927364        0.92845008110356       -1.57395620904112
N            0.77771915845630       -0.13143250253821       -0.82169723421085
C            2.12758254979316       -0.10084700346644       -0.35168596387776
C            3.13057363631561       -0.64463844890119       -1.39270617636213
C            4.53020300135885       -0.51043670288670       -0.88482592464055
C            5.22969678337715        0.67270630498042       -1.04425958678299
C            6.51807388592462        0.81151641879986       -0.54504958098937
C            7.13255347658791       -0.23193012774520        0.12940415710306
O            8.39423535786814       -0.20994874456538        0.65367721624273
C            9.16612521633383        0.94859943089676        0.47880597353808
C            6.42429452985886       -1.44236857826575        0.30588580952686
O            7.10255710265902       -2.41624995651860        0.97859115392046
C            6.48598872363950       -3.66291969919729        1.16518555524573
C            5.14023753785274       -1.56111212079948       -0.19582856017300
C            0.10514375855710       -1.40251980047777       -0.85575499941779
C           -4.66349716987243        3.54829123394975        0.68658319577230
C           -4.95510070465591        2.83403240945586        1.76188453683957
C           -4.06124728913214        4.88839395933573        0.73215489383657
H           -4.50446396776741        0.93286643618837       -1.23329938620002
H           -6.77752777072688        0.55936397067757       -1.49063126083230
H           -7.43628332939434       -0.82934219961627       -2.38437852112351
H           -5.83391306708853       -0.17724959503525       -2.80252694148530
H           -4.94901856060427       -3.64150155724151        2.63207512676632
H           -5.66665438627291       -4.80999626738290        1.49284403920329
H           -3.92724835728652       -4.47599640499278        1.42726428262807
H           -2.96181416686493       -2.37534604948371        2.04477230251493
H           -1.78979930181157       -0.24714875115309        1.80181370453613
H           -2.84202828499293        2.22708419191397       -1.97483185716543
H           -1.44412712761752        3.08695057127321       -1.34534878961081
H           -1.60601016791144        0.11339236265941       -1.99740008841820
H           -1.00719622740459        1.39650627005174       -3.10004777709678
H           -0.94881041452099        3.16209302044781        0.86375912790022
H            0.87733569398620        1.84178238441105       -1.42776125666765
H            2.21634541034556       -0.69480575138975        0.56238258956868
H            2.40149705983893        0.92974376512487       -0.11939176956265
H            3.00328570325280       -0.07338680838112       -2.31378898224640
H            2.89238416367591       -1.68940823750277       -1.59666041095278
H            4.77661667676893        1.49660758957971       -1.57405086939807
H            7.03529197237538        1.74650147964976       -0.69441333629870
H            8.71770187623809        1.81390564143239        0.97980952285149
H            9.31652528347470        1.18052164483365       -0.58159230812958
H           10.12917926623109        0.72942053844246        0.93623129165904
H            7.21262808825798       -4.27266043793191        1.70175798542792
H            5.57492010114422       -3.57866563242019        1.76635061998111
H            6.24706271050975       -4.14371689385816        0.21024679114231
H            4.59525659910246       -2.48429513033063       -0.07083376331503
H            0.01948113911781       -1.79442119999458       -1.88051373886690
H           -0.89539604189734       -1.31773391520979       -0.42586844238149
H            0.67025395339669       -2.12260703506249       -0.26637854684241
H           -5.07449960734835        3.28255364650298       -0.27883726867881
H           -3.06816815511094        1.88660147409459        2.33492208670671
H           -5.54543114337911        1.94261328809226        1.64618217608950
H           -4.79969328699148        3.20621736089031        2.76220100472242
H           -3.74333962585551        5.11879773311735        1.74255961417683
H           -3.19719452788352        5.09003760754522        0.12231748866708
H           -4.86544863395366        5.54756132796303        0.37534242443214
H           -1.76662408171407        2.71196060418727        3.06609756828067
