72
 energy: 19.995720134545 xtb: 6.6.1 (8d0f1dd)
N           -2.13065068150167        2.06024921557235        2.38879654153761
C           -1.76122019066934        2.36428470169512        1.06744069428995
C           -2.15610610316937        1.63332579504280        0.01959006010060
C           -2.97217807303800        0.42878189736945        0.22152764451650
C           -4.13321415277779        0.18469901829174       -0.52020067560587
C           -4.89480177352090       -0.95402385793057       -0.32644162732966
O           -6.04760856816007       -1.26349502532893       -0.99974685170135
C           -6.56081431565940       -0.32502548543178       -1.90820377586885
C           -4.47919841867455       -1.91557738384181        0.62241446548488
O           -5.28911068923363       -3.01054704497125        0.73195581332326
C           -4.96790069434571       -4.01398790832201        1.65859033138338
C           -3.32656321865481       -1.68273093949183        1.35167533454472
C           -2.59945171567994       -0.51359935795532        1.16566662074689
C           -1.89915415122546        2.08312082056144       -1.38224159672268
C           -1.03674464750457        1.03736250711412       -2.12460030822265
C            0.30106393085256        0.95514307731557       -1.51785176204886
N            0.82315699789268       -0.15776229153728       -0.89220876425747
C            2.15944133287850       -0.10825381252345       -0.40115429287722
C            3.18011067947833       -0.66862513065008       -1.41861624433416
C            4.57239366233249       -0.52720378371082       -0.89187625446151
C            5.26681722750093        0.66048821395120       -1.04126628582393
C            6.54952480151163        0.80409802836566       -0.53119978544670
C            7.16276584092879       -0.23653601827763        0.14661747145481
O            8.41845619514455       -0.20821166666775        0.68283498867188
C            9.18789717197965        0.95369520511124        0.51913096498293
C            6.46264198673723       -1.45296051827142        0.30974952827988
O            7.14074401928171       -2.42526581623760        0.98543324969504
C            6.52820926006650       -3.67522379683962        1.16471173902487
C            5.18363756406685       -1.57726748562285       -0.20233936262539
C            0.14318864552558       -1.41916978664449       -0.91387809930131
C           -4.84204243355390        3.66570211653235        0.70202708593763
C           -5.10389222408121        2.90759319027337        1.74121560752181
C           -4.17774079710616        4.98737067870766        0.77086138272130
H           -4.45574528335747        0.92415344796079       -1.23375561723543
H           -6.76509134931503        0.63098404235060       -1.41562457680165
H           -7.49600103615437       -0.74340794677177       -2.27743704934279
H           -5.88465049503852       -0.15080738636666       -2.74744002761789
H           -4.96658111308996       -3.62596967246120        2.68570006508226
H           -5.75561141334266       -4.76130664141765        1.55900244523873
H           -4.00752649227945       -4.48878640960336        1.44625857463697
H           -2.98368963230285       -2.40666941905718        2.07429655795286
H           -1.71572728185306       -0.32770468341900        1.75219556583376
H           -2.83438119658812        2.20452819571912       -1.93481563212795
H           -1.38905484250932        3.04842870162369       -1.36542947895488
H           -1.57295357357749        0.08644883420262       -2.08736197709254
H           -0.97121021986755        1.36551579846810       -3.17723805757637
H           -1.21043101743406        3.30881694065942        0.94078338563173
H            0.92019158699024        1.82188536408363       -1.52795461154206
H            2.22859538754052       -0.68568203687430        0.52352977222252
H            2.43340352998465        0.92549463170237       -0.17797040215804
H            3.06537147408445       -0.10855457857829       -2.34860849516347
H            2.94662266517413       -1.71591733592941       -1.61425534969380
H            4.81700629689088        1.48382955371142       -1.57486053022893
H            7.06420643069553        1.74154009960510       -0.67214742774114
H            8.73363693629969        1.81550629947957        1.02057441047562
H            9.34587230812761        1.19043961282342       -0.53938926840815
H           10.14725025244931        0.73313979797840        0.98353681895381
H            7.25371577812737       -4.27898091295865        1.70898436346656
H            5.60959311797292       -3.59717711162573        1.75610641461091
H            6.30312321973224       -4.15767291005407        0.20709688740281
H            4.64393592482180       -2.50509170250987       -0.08793638919230
H            0.08746424548854       -1.81646896377218       -1.93638956039938
H           -0.86821824876977       -1.33419263097978       -0.50897071379731
H            0.70068289083941       -2.12493086238687       -0.30111510778013
H           -5.12396552950018        3.38971320034942       -0.30427140941097
H           -3.03388562651414        1.61423856481925        2.41888625157021
H           -5.53268538309834        1.93296431631813        1.62201757266043
H           -4.98615719570652        3.27683071907749        2.74192278070143
H           -4.00399340868932        5.21886793057777        1.80939118256888
H           -3.24866030731245        5.04221150350361        0.20951375487893
H           -4.84631179373599        5.72844853209206        0.33745862308089
H           -2.05543943195372        2.83416599256876        3.01639319100141
