  25
        -42.12495544
 C          3.3624522776        0.6110284053        0.0186102307
 N          2.2547348169       -0.3019680742       -0.0011481240
 C          2.3341813353       -1.6360192167       -0.0087067940
 N          1.0725003813       -2.1290641348       -0.0090156384
 C          0.1783849739       -1.1008524103       -0.0001567673
 C          0.9285529738        0.0709638483        0.0055029014
 C          0.3051422103        1.3692745502       -0.0040111574
 O          0.8785262899        2.4379366729       -0.0219023592
 N         -1.0914275606        1.2703173731        0.0042397877
 C         -1.8511973440        2.5076278973        0.0052325823
 C         -1.8533908670        0.1138707189        0.0063367244
 O         -3.0570225819        0.1475151132        0.0114503974
 N         -1.1695809706       -1.1124390084        0.0005704176
 C         -1.9302689086       -2.3436007695       -0.0066026040
 H          3.8639228064        0.5808119918        0.9893528763
 H          4.0913797391        0.3286048083       -0.7423277006
 H          3.0010413559        1.6227741345       -0.1638762396
 H          2.9020520159       -4.5080044303       -0.0115562563
 H         -1.1495279716        3.3405361657        0.0153065520
 H         -2.4846122574        2.5587520339       -0.8826085876
 H         -2.4984495492        2.5467561357        0.8835467682
 H         -1.7014025435       -2.9381372212        0.8795071647
 H         -1.7114103818       -2.9215861619       -0.9061947076
 H         -2.9887049382       -2.0835164989        0.0015702874
 H          0.8764569746       -3.1199573195       -0.0155194804
