  25
        -42.17033812
 C          3.0006930227        1.2661215005        0.1649101860
 N          2.2041609178        0.0683304569        0.0805943172
 C          2.6472236233       -1.1861693564        0.0638510972
 N          1.6012853900       -2.0415479352       -0.0297118491
 C          0.4555181951       -1.3021808950       -0.0722607195
 C          0.8322853107        0.0309825762       -0.0018702334
 C         -0.1466623270        1.0920985522       -0.0603186648
 O          0.0700449181        2.2849170071       -0.0419957151
 N         -1.4458817489        0.5564236760       -0.1624724054
 C         -2.5292873134        1.5728368743       -0.2472999962
 C         -1.8023574768       -0.7253441496       -0.2170199469
 O         -2.5454593786        2.4167893906        0.8311756131
 N         -0.8439912067       -1.6748251019       -0.1784505770
 C         -1.2089729335       -3.0766041937       -0.2663579606
 H          3.5740493122        1.2777081528        1.0933443038
 H          3.6894213472        1.3216352707       -0.6773098157
 H          2.3361279180        2.1286818473        0.1436418174
 H          3.6755396054       -1.4829736566        0.1159374090
 H         -2.3830889184        2.1070143051       -1.1980893333
 H         -3.4708196140        1.0211945526       -0.2585923510
 H         -1.7954262080        3.0283550046        0.7887227380
 H         -0.8591535024       -3.6186512964        0.6130988227
 H         -0.7912222165       -3.5229908792       -1.1693760681
 H         -2.2939759983       -3.1366853084       -0.3105607620
 H          1.6741897834       -3.0491248899       -0.0542340584
