  25
        -42.13216368
 C          3.2475808130        1.1150897703        0.0160536455
 N          2.2563437492        0.0768555241       -0.0010499793
 C          2.4754287767       -1.2581801119       -0.0064743832
 N          1.3659608077       -1.9629013224       -0.0062020713
 C          0.3625759949       -1.0586244431        0.0006953592
 C          0.9036267136        0.2369589086        0.0049473186
 C          0.0701976994        1.4145448978       -0.0025620382
 O          0.4622015106        2.5594183659       -0.0143349420
 N         -1.2839768762        1.0810078896        0.0020609439
 C         -2.2429915484        2.1709306723       -0.0010303821
 C         -1.8415947483       -0.1926981515        0.0039534113
 O         -3.0338660010       -0.3530201155        0.0063736958
 N         -0.9641839382       -1.2831020131        0.0017128389
 C         -1.4993803270       -2.6227330661       -0.0014203586
 H          3.7563380485        1.1347691284        0.9821100608
 H          3.9886143338        0.9374198612       -0.7634521535
 H          2.7626106436        2.0769220327       -0.1475698692
 H          3.4538751013       -1.6977023512       -0.0116308297
 H         -1.6939190339        3.1107853699        0.0061857845
 H         -2.8761629903        2.1092717048       -0.8879375468
 H         -2.8890684996        2.1018000539        0.8758027144
 H         -1.1458197524       -3.1644822192        0.8764447165
 H         -1.1633832023       -3.1539068964       -0.8927315408
 H         -2.5863976532       -2.5588472310        0.0091180001
 H          2.5371252593       -4.5812403061       -0.0403951861
