25
 energy: 54.512108837745 xtb: 6.6.1 (8d0f1dd)
C            2.96793855446707        1.19211557734352        0.07013861987087
N            2.20245953804138       -0.02409203218650        0.02581278635315
C            2.66502602087960       -1.26794149325576       -0.00232373246960
N            1.61838799091490       -2.13289229032300       -0.01775855576178
C            0.45876604066630       -1.39575784926802       -0.00577517500948
C            0.83413320789939       -0.06161709260155        0.01831462619667
C           -0.20178816292754        1.00038756177842       -0.03247780358530
O            0.10821983487138        2.18584970325366       -0.04418596932300
N           -1.45028241346712        0.52800852873852       -0.07549473758652
C           -2.35869970519381        3.96906129499536        0.02414723567760
C           -1.85319421253338       -0.71733481549730       -0.05566128146166
O           -2.98882559103334       -1.11905440934278       -0.06159367810261
N           -0.80411500404800       -1.79756327986871       -0.03865983417172
C           -1.19851394079946       -3.17997163025720       -0.06230865539269
H            3.21759781561220        1.44303952907225        1.11386166860054
H            3.88998225223321        1.08708670109002       -0.50964159879613
H            2.33320443719838        1.98678501690451       -0.34291506567360
H            3.69436738659435       -1.55591988920544        0.05579884389439
H           -1.29949948625739        4.02948337172252        0.04368776485945
H           -2.82648084398871        3.79322013301823       -0.91991262542484
H           -2.87739719363204        3.72461452599318        0.92372540798990
H           -0.84662810295922       -3.69457216692027        0.83373782459569
H           -0.81480086830370       -3.67528665481905       -0.95629496453710
H           -2.28504469500458       -3.20624684192096       -0.08301533446739
H            1.68518944326619       -3.13724863065054       -0.01615370935923
