25
 energy: 55.199865559717 xtb: 6.6.1 (8d0f1dd)
C            2.96942341201292        1.18674443780095        0.06927937967743
N            2.20398321413578       -0.03247029472353        0.03522490024446
C            2.66645881194394       -1.27779638607121       -0.00069726777553
N            1.61605753572333       -2.14244885872203       -0.01717679052958
C            0.45375583966437       -1.39577492988407       -0.00742238852045
C            0.83435324887722       -0.06684939923610        0.04011714094955
C           -0.21060452300896        1.01045276916183       -0.04446650445364
O            0.11824289714113        2.18495383458578       -0.11501589451078
N           -1.44957601739670        0.53479338696060       -0.07131941578356
C           -2.32358801645338        3.81424014881273        0.03665363575739
C           -1.85832004778997       -0.70927147353287       -0.04701024359150
O           -2.99703267610007       -1.10259222581787       -0.04437717582866
N           -0.80751383538729       -1.80049258953027       -0.04009471883817
C           -1.20549404267209       -3.18085431501356       -0.07076933972190
H            3.12986454665171        1.49393334832940        1.10393718733068
H            3.91316124321193        1.05992711582151       -0.46717912804066
H            2.38340687116927        1.96101653523758       -0.42509528331246
H            3.69705865024832       -1.57009414071878        0.05635875096350
H           -1.28617651596341        4.04955329899794        0.10973007514669
H           -2.78511701717592        3.79044568396504       -0.92519728776099
H           -2.91377542534148        3.70733118239380        0.91717590380037
H           -0.85834832802909       -3.70178044067527        0.82464542276363
H           -0.82023144605863       -3.67674258006358       -0.96438685752621
H           -2.29988117047540       -3.15945568556878       -0.09451007414491
H            1.70876420196354       -3.14796692946288        0.00973170684422
