25
 energy: 36.811472426032 xtb: 6.6.1 (8d0f1dd)
C            3.05376023215028        1.22197034781547        0.09812793157421
N            2.21196177023255        0.06356235607278        0.00038456282937
C            2.61908573111160       -1.26338672430181        0.17720233501315
N            1.45533525264181       -2.03700843528907        0.01418560109358
C            0.37896775285449       -1.21043723802763       -0.02332987433134
C            0.81891969104813        0.09339666214517       -0.01849230264286
C           -0.04150642480076        1.22153138686110       -0.07316959391246
O            0.42134095991803        2.36406010273912       -0.16867311643687
N           -1.44212838795983        1.01306513629338       -0.01496460197657
C           -2.09212059195029        2.63707795265347        0.01207869237111
C           -1.91777907486500       -0.33678783209471       -0.02653106224471
O           -3.08452090678631       -0.65901484709020       -0.03246087356343
N           -0.95397329390994       -1.45503338682661       -0.04345958708841
C           -1.35047465166623       -2.84833608560525       -0.06371239133748
H            3.31834255820019        1.43838698848404        1.13463010437074
H            3.96744705451607        1.06005975785752       -0.44816608942710
H            2.43942599076891        2.04798434840127       -0.28792322151490
H            3.58619197599629       -1.56924860406387       -0.19680100982935
H           -1.20351581695348        3.27345043804457        0.07538880388920
H           -2.63642110361316        2.82137973545706       -0.90205170183891
H           -2.71228714553677        2.79103209335626        0.87620479979753
H           -0.95100878789654       -3.36022495434396        0.82051690588856
H           -0.92583478698031       -3.34260397496550       -0.94495231181042
H           -2.44538947401615       -2.86439499957665       -0.08045123549549
H            1.49249817137324       -3.04273837861530        0.00050258397810
