25
 energy: 5.931524216120 xtb: 6.6.1 (8d0f1dd)
C            3.12696790590093        1.21738630860026        0.09887845128854
N            2.24880769825384        0.08967514527064        0.00898475302655
C            2.58984356302717       -1.25341061643697        0.07557512721856
N            1.41941588222395       -1.99719477071479        0.00055148330809
C            0.37198652968748       -1.14247014144131       -0.02142902048274
C            0.85349407329941        0.15407200960107       -0.00916872796318
C            0.02419441004186        1.28429934171172       -0.03442233147561
O            0.45369856438430        2.44391226305753       -0.06415628788920
N           -1.39992387114837        1.03916128946153       -0.03150550388020
C           -2.12060523248696        2.39024149414530       -0.01877321797206
C           -1.91098803594418       -0.25581922995542       -0.04630522637180
O           -3.08845530417488       -0.53369627926539       -0.06637532889968
N           -0.97225635034775       -1.37461254110568       -0.04454982437925
C           -1.40955951484846       -2.75368647701817       -0.06209022251412
H            3.51299915140770        1.36635133188537        1.11053012757204
H            3.95719679327749        1.10902846940043       -0.57387069987421
H            2.52989472979097        2.09017454409009       -0.18135856972185
H            3.58850250934601       -1.60636418198070       -0.07589884991787
H           -1.32644485067524        3.13321872627378        0.01257868096128
H           -2.73212744747211        2.51212029578162       -0.92082436254228
H           -2.78403366686636        2.48205780793121        0.84327263937913
H           -1.04999944717426       -3.28743762032632        0.82480300230611
H           -1.02479545811142       -3.27049887496654       -0.94767261311661
H           -2.50016176897973       -2.73297946609743       -0.07827075436077
H            1.41109265264891       -3.00809913646420       -0.00096189081114
