25
 energy: 55.700552974333 xtb: 6.6.1 (8d0f1dd)
C            3.03864627659656        1.21816113151128        0.09757775926564
N            2.20451769866027        0.04750168064694        0.00959364716607
C            2.61097955853328       -1.25408175101408        0.14833096476705
N            1.47724319558030       -2.05344056811540        0.01763855860352
C            0.38101743329565       -1.23370878105858       -0.01800078590242
C            0.82144554639672        0.06595283213603       -0.01153234657954
C           -0.08189958666537        1.18602804731443       -0.07894724879711
O            0.37966323001164        2.31940499740040       -0.18440708447523
N           -1.41772984449658        0.88924052049819       -0.02733405363593
C           -2.13650719479419        2.90163670299360        0.02065696045122
C           -1.90208567921406       -0.38979105257244       -0.02665291788061
O           -3.06670662736522       -0.71326667184867       -0.03338406675253
N           -0.92964745370243       -1.51263247089300       -0.04345463453458
C           -1.33219400623751       -2.89503435401085       -0.06428952737898
H            3.26677918093995        1.45449282882661        1.13780177061755
H            3.97316458083359        1.04730371171828       -0.41140095895025
H            2.43371149045879        2.03571430812076       -0.32163232393807
H            3.58749906874062       -1.56032190751927       -0.14590314855701
H           -1.19353166057821        3.39469269332739        0.09130256250122
H           -2.63423027123048        2.93656973475104       -0.91384870517366
H           -2.71298930174020        2.89251759243979        0.90212779658386
H           -0.92741393715950       -3.39624928975998        0.82194975338427
H           -0.89990725308748       -3.37670570795365       -0.94626527908811
H           -2.42907485360418       -2.89997859888148       -0.08050191700781
H            1.51359921397867       -3.05929648663040       -0.00399781976783
