25
 energy: 57.339768938373 xtb: 6.6.1 (8d0f1dd)
C            3.02758992177852        1.21532477916507        0.09583062113329
N            2.19561104784996        0.04159548482014        0.00791958909144
C            2.60685718797584       -1.24757591880359        0.10897510978907
N            1.49308387834653       -2.06317254274095        0.01526610678387
C            0.38601956471056       -1.25238163037060       -0.01441312170211
C            0.81925191728695        0.05042509600973       -0.00246042100506
C           -0.10740374074976        1.16324205660571       -0.08121523006033
O            0.34756027522875        2.29636722306631       -0.19495237738660
N           -1.42301469030756        0.83918296880567       -0.02854996448359
C           -2.15936513215194        3.02989736999137        0.03209004463176
C           -1.89739450298013       -0.42369894988508       -0.02620952021061
O           -3.05782965046395       -0.75830970140103       -0.03329748069221
N           -0.91465411357697       -1.54860381179947       -0.04221427133445
C           -1.31974459815069       -2.92677699611120       -0.06849985254897
H            3.21597513830653        1.46307123228060        1.13994305386103
H            3.97967688058986        1.03392955033980       -0.37566483036175
H            2.44835798564236        2.03142838890003       -0.35580439540125
H            3.59063105559620       -1.55600562171192       -0.12528907015461
H           -1.19674753718624        3.47106324637434        0.10883983224201
H           -2.62713126507874        3.01606913015797       -0.91334244401822
H           -2.74590077307175        2.95940597194382        0.90529665355588
H           -0.92705006468551       -3.43047220859283        0.81896323562115
H           -0.89005110587917       -3.40503181315616       -0.95207862877271
H           -2.41699802687205       -2.92911987724453       -0.08371685865072
H            1.53383153737103       -3.07009959705142       -0.00599529204653
