25
 energy: 11.677935117107 xtb: 6.6.1 (8d0f1dd)
C            3.10402916348294        1.22052446361307        0.10081953947912
N            2.23820902847855        0.08297331414934        0.00599806643285
C            2.59760481194307       -1.25740299149507        0.10508828944251
N            1.42848378247940       -2.00847827991804        0.00218663380729
C            0.37301676701561       -1.16084043566327       -0.02454311644538
C            0.84252204228284        0.13755398764792       -0.01375549660355
C            0.00582631257552        1.26734200975219       -0.04487510551473
O            0.45468480145967        2.41960885655404       -0.09166907796876
N           -1.42142173155382        1.04741403690492       -0.02963233063772
C           -2.10543446936483        2.44734126943546       -0.00516824291358
C           -1.91673682715464       -0.26870555262155       -0.04389302981968
O           -3.08926088460949       -0.56743775341358       -0.06477598072634
N           -0.97039991763661       -1.39143849917445       -0.04589038105922
C           -1.39654728898341       -2.77492688345664       -0.06155072954016
H            3.46173848773663        1.39064509169282        1.11895659614567
H            3.95324735498146        1.10003987484986       -0.54298467141946
H            2.49987585755839        2.08057820284684       -0.20710424383774
H            3.59048335497378       -1.60204363896875       -0.11816482006646
H           -1.27497059754165        3.15762090079762        0.02702150544954
H           -2.70769024315012        2.59492714288995       -0.90884259131651
H           -2.76500703580538        2.56346464691979        0.85345436427559
H           -1.02932380276329       -3.30292050225902        0.82624908876877
H           -1.00345954097748       -3.29113920344193       -0.94445398790461
H           -2.48756359147679       -2.76111886168089       -0.07884461045088
H            1.43330021212182       -3.01867038537502        0.00035547942561
