25
 energy: 54.919630960430 xtb: 6.6.1 (8d0f1dd)
C            2.97560351777918        1.18634607179388        0.06866794865719
N            2.20974156358828       -0.03074487120215        0.02129187618674
C            2.66856483133872       -1.27681787847726       -0.02421879982435
N            1.62045282724813       -2.13963981484414       -0.02489866327598
C            0.46119114708524       -1.40010383641397       -0.01525582109259
C            0.83732753745464       -0.06249192434923        0.01113831906776
C           -0.19923841583838        1.00670704462530       -0.04774804615125
O            0.10565430090796        2.19453471109825       -0.04221144818081
N           -1.45105016068164        0.53082759863116       -0.09783496132977
C           -2.35583974270468        3.98771940911624        0.03192495793404
C           -1.85134314637059       -0.71689678811446       -0.06181042662793
O           -2.98077068014305       -1.14111668904322       -0.05500669369762
N           -0.80109458844142       -1.80182750040200       -0.03920672879381
C           -1.18943658666648       -3.19270803363338       -0.06479907983981
H            3.21341187502002        1.44403786268935        1.11850201468475
H            3.89748200189020        1.08039280753851       -0.52275244185037
H            2.34085724979777        1.97429229531075       -0.36077563114599
H            3.69569392280943       -1.57738325130032        0.08884919550584
H           -1.30007793355892        4.09643647238368        0.07280754838812
H           -2.81266761864424        3.84953546280025       -0.92114896751244
H           -2.90718095173786        3.79699481056004        0.92212822631086
H           -0.84298754548774       -3.71493903423946        0.83032168959229
H           -0.80774897742522       -3.69845481551598       -0.95590001505555
H           -2.27687627790273       -3.21528141610177       -0.08860853220048
H            1.68656191356827       -3.14174231362767       -0.00586989644143
