25
 energy: 57.731451744282 xtb: 6.6.1 (8d0f1dd)
C            3.01079404581180        1.21615992112826        0.09501579121127
N            2.19563919589317        0.02942000253363        0.02380510848261
C            2.62805913305755       -1.24683194004977        0.06276055188050
N            1.53082532927857       -2.08078303348440        0.00334519658890
C            0.40552482779543       -1.29041506416495       -0.01121445487522
C            0.82443486757608        0.01930639065366        0.01930015982399
C           -0.13965312694932        1.11740049093996       -0.07623795738292
O            0.29148181410481        2.25509169898930       -0.19939571389323
N           -1.42965641623396        0.75941348983970       -0.03169765461026
C           -2.19710455984352        3.23119657770338        0.03654903167587
C           -1.88597026892609       -0.48961560801321       -0.02759819301640
O           -3.04011603023375       -0.84223622518655       -0.03413814048677
N           -0.88453245866729       -1.61247796077980       -0.04178543233481
C           -1.29439206639591       -2.98733276260162       -0.07276799262794
H            3.14316600353476        1.53011963571010        1.13138645824571
H            3.99086861753165        1.01848445547014       -0.30959119726554
H            2.47629056299616        2.01570055809665       -0.42750108882977
H            3.62043350766026       -1.54896245373947       -0.19159422041283
H           -1.20939672841284        3.60793827541787        0.12677937522580
H           -2.64992308617036        3.18898186870816       -0.91801593714196
H           -2.80004137661010        3.11853779132957        0.89926070719841
H           -0.91653117543910       -3.49792177792201        0.81523994566591
H           -0.87899115616779       -3.46979766171445       -0.95985165477122
H           -2.39253733603923       -2.98810397584289       -0.08655231735705
H            1.57707351354921       -3.08963090733706       -0.00778227416800
