25
 energy: 57.623042606988 xtb: 6.6.1 (8d0f1dd)
C            3.01905710582217        1.21651308260977        0.09646596656089
N            2.19407758392942        0.03741207282318        0.01306283416337
C            2.61450918733915       -1.24424417228212        0.07045360429250
N            1.51165102682816       -2.07153646030014        0.00794261533966
C            0.39455101293647       -1.27123927998655       -0.01218283092176
C            0.82058110721636        0.03529395636926        0.00931481019167
C           -0.12601970820480        1.14030896394956       -0.07961952471159
O            0.31777755627073        2.27527675331671       -0.20159902048627
N           -1.42810138398885        0.79786296114198       -0.02955682479430
C           -2.17855022410344        3.13602428090311        0.03463654319372
C           -1.89306578369617       -0.45613622533660       -0.02621681043309
O           -3.04985990814257       -0.80010935563699       -0.03383532728434
N           -0.90002484518523       -1.58152483151969       -0.04160793122535
C           -1.30798320781380       -2.95745656050228       -0.07076055409595
H            3.17865581031290        1.49506774303883        1.13866948823580
H            3.98651934851661        1.02348775294807       -0.33770571070295
H            2.46483880584474        2.02709856363934       -0.39085969765300
H            3.60376121816064       -1.55184206492890       -0.15666525522634
H           -1.20243785174454        3.54189843743374        0.11896218991989
H           -2.63691384325215        3.10213132881409       -0.91594239738167
H           -2.77251828634947        3.03876525264316        0.90211635174678
H           -0.92435225140863       -3.46510457722850        0.81677106350064
H           -0.88718857169848       -3.43807624407566       -0.95653997066791
H           -2.40581163802077       -2.95970005709897       -0.08477554870169
H            1.55539470078414       -3.07958551246026       -0.00908601151387
