25
 energy: 18.228480572165 xtb: 6.6.1 (8d0f1dd)
C            3.08646332251590        1.22172537768864        0.10096857521147
N            2.22891440223697        0.07675047692500        0.00451731843846
C            2.60520104227781       -1.26079153496427        0.13016412475940
N            1.43558239049696       -2.01807834434536        0.00363166445937
C            0.37379465975671       -1.17609904894555       -0.02267953430772
C            0.83402303302921        0.12387847613818       -0.01363243776603
C           -0.00872679326409        1.25619551403708       -0.05246207945303
O            0.45551644798584        2.40237783689414       -0.12486352949469
N           -1.42942360825093        1.04874232587875       -0.02088655705540
C           -2.09559655568521        2.50609953712178       -0.00191958258811
C           -1.91771883694370       -0.28611270478845       -0.03487544481584
O           -3.08729598441689       -0.59743057572060       -0.05755399054207
N           -0.96654554659959       -1.40991175296542       -0.04165855851382
C           -1.38007285718317       -2.79833337779148       -0.06186530145986
H            3.41819035580799        1.40855925463262        1.12475689544018
H            3.95411167077729        1.08381650526335       -0.51347299423689
H            2.47819461569163        2.07299407217985       -0.22906596943182
H            3.58932345418526       -1.59559631098527       -0.16324894907029
H           -1.23281718854453        3.18506305943286        0.03764952572383
H           -2.68395418685174        2.67298271907224       -0.90851257807583
H           -2.74291559816461        2.63633162092306        0.85871152305051
H           -1.00037579988001       -3.32285900086805        0.82308896505093
H           -0.97546805119444       -3.30585603930715       -0.94481932997328
H           -2.47283089275497       -2.80017943872470       -0.07867550721266
H            1.45032287598418       -3.02720537215135       -0.00063324301910
