25
 energy: 55.681484472052 xtb: 6.6.1 (8d0f1dd)
C            2.97385252103465        1.20400959583201        0.07762313456678
N            2.20267123510958       -0.01432078852420        0.04457826779093
C            2.66101340843154       -1.26724559938186        0.04734641692208
N            1.59826748462890       -2.12364960556599       -0.00970167660965
C            0.44784282447307       -1.36938579256603       -0.01794097672186
C            0.83809368173714       -0.04404721873539        0.03594696439785
C           -0.18873457884130        1.04587208462747       -0.05332539461522
O            0.16644702652980        2.20521737482613       -0.17073397233655
N           -1.43592369641686        0.59582783040597       -0.04291254592632
C           -2.28914677134650        3.65322667126257        0.04293996558350
C           -1.85680442855210       -0.64603604712612       -0.03487388121352
O           -2.99813379587269       -1.02733255494337       -0.03742512580264
N           -0.82062979655906       -1.75151707899903       -0.04585704927405
C           -1.23252716730370       -3.12800123766819       -0.07342645202314
H            3.06922382829133        1.57340863585793        1.09855430799105
H            3.93964780341447        1.04484297695148       -0.38614467055774
H            2.43465483117677        1.96090427033923       -0.49100744377507
H            3.68889002161855       -1.55281812783229       -0.03640267175909
H           -1.26829104754226        3.94922181034102        0.14151532034040
H           -2.74881705646809        3.61489229163797       -0.91989261110931
H           -2.91120349953626        3.53275981430940        0.90548902882836
H           -0.88893946461052       -3.65259474493493        0.82273925466134
H           -0.85201455892142       -3.62919637949835       -0.96733635886927
H           -2.32972667269605       -3.10818786416328       -0.09622080561894
H            1.66599418870473       -3.13103792700599        0.01041154705474
