25
 energy: 25.995958095719 xtb: 6.6.1 (8d0f1dd)
C            3.06895409621949        1.22283627464079        0.09867717454640
N            2.22054779206336        0.06993914085786        0.00303490454075
C            2.61462141251084       -1.26292441827035        0.15938262454066
N            1.44608564195241       -2.02701619131189        0.00664227756053
C            0.37615596431689       -1.19308925012218       -0.02271016253511
C            0.82681477155588        0.10883331094705       -0.01581477355620
C           -0.02466098907689        1.24132150571111       -0.06487011271273
O            0.44414623154329        2.38397637199510       -0.15443371420793
N           -1.43759613227067        1.03699999434202       -0.01820936484501
C           -2.09123029516621        2.56276163065314        0.00715471205308
C           -1.91884057388527       -0.30878478676656       -0.03313520347136
O           -3.08660482909460       -0.62948055922365       -0.04970257846265
N           -0.96118225481404       -1.43098561323402       -0.04222653794082
C           -1.36608248500960       -2.82367559003317       -0.06207090123011
H            3.36855150107942        1.42737139770395        1.12845105872522
H            3.96061061383746        1.07036448677036       -0.48179532965092
H            2.45910223224190        2.06260751495419       -0.25956224482663
H            3.58769565094682       -1.58446470844009       -0.19906638249530
H           -1.20680964918886        3.21369446368297        0.05920583788258
H           -2.65724848412026        2.74623506365156       -0.90374803861248
H           -2.72852867825090        2.71252766219596        0.86720548000956
H           -0.97645362025573       -3.34351929262353        0.82165501933374
H           -0.95132791105790       -3.32621626021685       -0.94326522105017
H           -2.45973855353778       -2.83775943949121       -0.07912910816876
H            1.47097088786811       -3.03549076132031       -0.00079944976796
