25
 energy: 55.343831841476 xtb: 6.6.1 (8d0f1dd)
C            2.97243589473595        1.19706704898645        0.07552296289340
N            2.20271625077356       -0.02126299087044        0.04120593652151
C            2.66206028664112       -1.27074393198120        0.02458089180194
N            1.60462226857109       -2.13080949042838       -0.01204645267607
C            0.44780741079572       -1.37941123073865       -0.00660610061567
C            0.83535355466417       -0.05214656207743        0.04669705554820
C           -0.20504860083532        1.02715948023786       -0.04746938810350
O            0.13360856682650        2.19354295842983       -0.15408081764915
N           -1.44734647592300        0.56403876624770       -0.05286953082262
C           -2.30384803555943        3.73493412272441        0.04538918059267
C           -1.86099390342291       -0.67826641101732       -0.03905890502230
O           -3.00033899675121       -1.06680557084934       -0.03695495353629
N           -0.81692782846376       -1.77472455200171       -0.04143569153431
C           -1.21685327517846       -3.15465664851167       -0.07356395942802
H            3.10422264759891        1.53212361807079        1.10347654200250
H            3.92690690832657        1.05289741289499       -0.42468852771093
H            2.41342446189610        1.97009911100346       -0.44969662332972
H            3.69249424923890       -1.55905446561941        0.00822581979772
H           -1.28054393376645        4.02583769257945        0.13997411549743
H           -2.76642577738318        3.70247769452545       -0.91700903665860
H           -2.91760816250777        3.61789594032419        0.91334444613099
H           -0.87633079441325       -3.68427240528012        0.82124447952524
H           -0.83880103838092       -3.65878498540166       -0.96776897058495
H           -2.31258168030253       -3.13067967848208       -0.09531941699480
H            1.68842396557272       -3.13753657207882        0.00910850867130
