25
 energy: -6.064339779062 xtb: 6.6.1 (8d0f1dd)
C            3.22295428427192        1.18500724628303        0.08904474361277
N            2.30142121286218        0.09766542580754        0.03282074388071
C            2.60715120258136       -1.24993980301556        0.03325646077649
N            1.42072044772002       -1.94928462532044        0.00120526539872
C            0.39626395447417       -1.07360184327835       -0.01020019284590
C            0.91143447760395        0.21532370124779        0.01114872885223
C            0.09936880377793        1.36903320677656       -0.00891522306840
O            0.46944386902569        2.54768666471578       -0.01207717509987
N           -1.29200715163875        1.04367078498324       -0.03148600257067
C           -2.19848606898994        2.19483360341080       -0.04435626588363
C           -1.83531192777128       -0.20882137941844       -0.04828844755977
O           -3.03204497380329       -0.40896309436888       -0.07029067693008
N           -0.94478861528746       -1.31353841120258       -0.03868906533010
C           -1.45805244029937       -2.66449504915092       -0.06073944767695
H            3.68567601539823        1.25456335597006        1.07791045713277
H            4.00323056450135        1.06282346167106       -0.66110602793384
H            2.66351912909095        2.09970476604080       -0.10637772332027
H            3.58545250246541       -1.67116202767301        0.04347777397869
H           -1.59625112139289        3.10117004361053       -0.01826992763369
H           -2.81003018619256        2.17738796027742       -0.94809353403809
H           -2.86259353330715        2.15790656767503        0.81974256644596
H           -1.14444387999905       -3.21522600808859        0.83018405319134
H           -1.11956494684528       -3.19503518961935       -0.95474737944039
H           -2.54445635506085       -2.59033110702743       -0.07537064405127
H            1.36218317933637       -2.95452834475111       -0.01197071705901
