25
 energy: -2.021930350983 xtb: 6.6.1 (8d0f1dd)
C            3.17564855096344        1.20271314870946        0.09270381917219
N            2.27565235412290        0.09268468946960        0.01980995783498
C            2.58896777933206       -1.26030235639952        0.04345634081925
N            1.41160974314602       -1.97569209785672        0.00144144635384
C            0.38033855800232       -1.10631217376698       -0.01588258442855
C            0.88166441298547        0.18684235781620        0.00033059957138
C            0.06005368305006        1.32563217450132       -0.02035583504018
O            0.44109931250684        2.50072242608001       -0.03377282167416
N           -1.34782692535722        1.03347855472679       -0.03304543426067
C           -2.15842510561822        2.28683277480596       -0.03237440380557
C           -1.87653141730071       -0.23537557581699       -0.05017638974102
O           -3.06524889046338       -0.47078103931932       -0.06995329037828
N           -0.96302768433631       -1.34315476210821       -0.04316017914018
C           -1.43338432736657       -2.70990927169791       -0.06219094502880
H            3.60304157185661        1.31567111699771        1.09312290162743
H            3.98094648325642        1.09930705294489       -0.62297779775698
H            2.59371606937630        2.09597040633795       -0.14396913162928
H            3.58528646492357       -1.62225895972877        0.00625042662464
H           -1.45718837024565        3.11636503896729       -0.00262264849062
H           -2.77729679988702        2.34820982828210       -0.93359288074375
H           -2.82562343290035        2.31713421215495        0.83090847337549
H           -1.09614018666894       -3.25219507060554        0.82679596062749
H           -1.06962440780140       -3.23380110392429       -0.95128689741836
H           -2.52199606146898       -2.66453387749647       -0.07857116931735
H            1.37595114409013       -2.98498358877667       -0.00337257385224
