  25
        -42.07937946
 C          3.2231554878        1.1504751737       -0.0060563701
 N          2.2823079891        0.0606389294       -0.0094817075
 C          2.5666217971       -1.2301879835       -0.0163405186
 N          1.4353339061       -1.9567057943       -0.0097663917
 C          0.3729195812       -1.0820082690        0.0019534375
 C          0.9168408803        0.1989503745        0.0016190463
 C          0.0940272524        1.3900046337        0.0028818686
 O          0.5001366831        2.5292804774        0.0073127443
 N         -1.2635484119        1.0611185694       -0.0040320403
 C         -2.2148981727        2.1692342250       -0.0093823755
 C         -1.8439116388       -0.1785868660       -0.0080286458
 O         -3.0257610179       -0.3643448407       -0.0217550496
 N         -0.9536798243       -1.3363058387        0.0049121510
 C         -1.5149486591       -2.5560483657        0.0128609003
 H          3.8290998071        1.1236559337        0.8998495606
 H          3.8823007687        1.0845264367       -0.8713424888
 H          2.6699039221        2.0890211347       -0.0401773639
 H          3.5580768680       -1.6417182958       -0.0268310204
 H         -1.6488355210        3.0972181628       -0.0054538551
 H         -2.8421414702        2.1130877888       -0.8977326710
 H         -2.8522985197        2.1117893456        0.8715612227
 H         -0.9009148698       -3.4328367762        0.0391164804
 H         -2.5915967712       -2.6262029369        0.0647585923
 H         -4.3168534151       -3.4986369649        0.7105732655
 H          1.3896424775       -2.9657690999       -0.0156329090
