72
 energy: 68.915096864983 xtb: 6.6.1 (8d0f1dd)
N           -1.64700851027182        2.93678152084765        2.28313048341940
C           -1.63021805101412        2.21293577493245        1.26221507669252
C           -2.78309893151432        2.08266086795856        0.30275348098778
C           -3.34649760917797        0.67100137502368        0.37788326588519
C           -4.30451262358021        0.25688930065468       -0.55151821549290
C           -4.85989352259126       -1.00750018972171       -0.50070375005293
O           -5.80597797464417       -1.48272535068133       -1.35405101334686
C           -6.36457503487978       -0.61081450133424       -2.30431260200675
C           -4.44203613030483       -1.91557454507851        0.50087937747050
O           -5.03156426329854       -3.13935773077519        0.46157560574684
C           -4.70251976073435       -4.08131828183993        1.45178804632726
C           -3.49776607651939       -1.50205619737539        1.42158474207035
C           -2.96072232313351       -0.22021730470917        1.36190018156803
C           -2.20265172191396        2.34917309566361       -1.11264102250709
C           -1.37507522140365        1.19539684638361       -1.71164702523782
C           -0.04329039202575        1.04257021517519       -1.08114371833993
N            0.50227328017410       -0.10763515949630       -0.67482942900919
C            1.87276048872408       -0.16100770520767       -0.26219358218408
C            2.81677407907848       -0.74204599223465       -1.35837402085151
C            4.23005544651110       -0.67572182440646       -0.89395538608463
C            4.97820121568593        0.49212922112919       -1.07053992643727
C            6.26330754310744        0.58816508809144       -0.61681716918204
C            6.91833010238699       -0.48318935461409        0.07725851325358
O            8.08169055683474       -0.40358269818303        0.49820540940502
C           10.87407891972839        2.20888439631520        0.44305888409708
C            6.10213862708431       -1.68931124261743        0.25310592371394
O            6.75347133927602       -2.69086742389059        0.90199610140456
C            6.10319276255738       -3.91116627928730        1.11904090083752
C            4.81259860643971       -1.75363764268062       -0.21325035391377
C           -0.20765810326744       -1.35980560106982       -0.77939436036118
C           -3.93986281219587        3.08317969913749        0.59153753326656
C           -4.61088845560915        2.79466985754345        1.93351633429274
C           -3.49735827225095        4.54414334340679        0.54288727582639
H           -4.62583200007407        0.94307034388552       -1.31790763362739
H           -6.82691420307232        0.26122676629216       -1.83023106969631
H           -7.13205779977131       -1.19097327458475       -2.81411906715021
H           -5.62162322787830       -0.27690938366542       -3.03688221358860
H           -4.95483548455649       -3.72043187911728        2.45415525044855
H           -5.30249207578659       -4.96117137456324        1.22516029006272
H           -3.64126120672384       -4.35028238280779        1.41857039102331
H           -3.17475313734403       -2.16431657017856        2.20903763853197
H           -2.24905001318644        0.07588492405746        2.11694860117368
H           -3.02928983728457        2.55704933220741       -1.79286473670209
H           -1.57959731335608        3.24399036348844       -1.07089528110206
H           -1.94989857829315        0.27200878096890       -1.66416458959482
H           -1.22141138060562        1.43827023744316       -2.77161346766670
H           -0.75524020333234        1.62555495281360        0.93675656013624
H            0.58313460520279        1.91815874811453       -1.01869241016476
H            1.95320606919501       -0.78138822895543        0.63349155676818
H            2.21603689767870        0.84537230278208       -0.01664589555838
H            2.68311392537631       -0.14626698727766       -2.26354051370004
H            2.52262538114175       -1.77156562178507       -1.56763684940106
H            4.53012385950808        1.32596020696177       -1.59709268740768
H            6.84389960746082        1.48600899295994       -0.77039252007750
H           10.35643331676681        2.96385011733726        0.99356656019204
H           10.94367968239319        2.27956725213439       -0.62042733686369
H           11.21545386788787        1.32710421873694        0.94124293121064
H            6.82367920433383       -4.53989064352781        1.64115319076135
H            5.21020670656516       -3.79202876473912        1.74469010188384
H            5.82025261761159       -4.39407544083900        0.17609338998290
H            4.22597337923064       -2.65451476735337       -0.08395361244738
H           -0.37890829998484       -1.64197323965781       -1.82174503316937
H           -1.17253438049785       -1.29058790421809       -0.27168023519968
H            0.37989275253948       -2.14009565159995       -0.30203031625216
H           -4.68806058824085        2.93191025934344       -0.19565363906481
H           -3.90521191610436        2.95333846105919        2.74173260297068
H           -4.97411727342206        1.77073543973052        1.97719108050016
H           -5.45617618846679        3.46480701412551        2.07051762144001
H           -2.74052482248900        4.73141441798081        1.29758885885269
H           -3.10457343220938        4.81547459244219       -0.43357167317773
H           -4.35200154351998        5.18405348352404        0.74876889723730
H           -0.79514495108902        2.95990616636776        2.83861602529952
