72
 energy: 70.052789245292 xtb: 6.6.1 (8d0f1dd)
N           -1.65774969212852        2.96669562801881        2.27522041858240
C           -1.64302130123447        2.21389692257484        1.27734725254185
C           -2.78792481651489        2.08268843632145        0.31084016049562
C           -3.35155478511043        0.67175666169896        0.38452920769352
C           -4.30553747250460        0.25723339923819       -0.54906746207257
C           -4.86217857070257       -1.00617880012982       -0.49781573459868
O           -5.80401111163710       -1.48280608803057       -1.35528761697807
C           -6.36016108444479       -0.61003957316461       -2.30646081036720
C           -4.44859413702863       -1.91243009376461        0.50779120503226
O           -5.03681320162423       -3.13554857257371        0.46729949123265
C           -4.70716276237388       -4.07874364834283        1.45714575743693
C           -3.50870030305466       -1.49738568394664        1.43203764464844
C           -2.97137827817274       -0.21570532319203        1.37326525017202
C           -2.19650502338100        2.35404686779960       -1.09897692603080
C           -1.38382801365874        1.19646636519047       -1.71233866530872
C           -0.03431667896809        1.03014621788021       -1.12421551680193
N            0.48962697977216       -0.11414841840561       -0.67493530428325
C            1.87161263121539       -0.17670595460013       -0.26815664066585
C            2.82824560233427       -0.76238659436359       -1.34729312692228
C            4.24390906549753       -0.67509442759917       -0.88268724882980
C            4.97937831993624        0.49714764936210       -1.07521367909507
C            6.26197743220415        0.60091831467569       -0.63171085482412
C            6.94707042039032       -0.44714355742850        0.06732477594003
O            8.11650414853474       -0.28514747618332        0.45518867699257
C           10.66943654329893        1.99372878839858        0.46026012769385
C            6.14686603406200       -1.66511367185871        0.25476509477922
O            6.79516075066396       -2.67757501215950        0.90030284427050
C            6.11783432379077       -3.88169203421082        1.10379531309027
C            4.85057478377516       -1.73990672757802       -0.20536685499035
C           -0.22517283759387       -1.36720542711407       -0.79662410784576
C           -3.94831839894562        3.08315114370933        0.59396396693322
C           -4.62717621285901        2.79680424323599        1.93281931763659
C           -3.51241777180773        4.54596459014355        0.54289672589874
H           -4.62182526213356        0.94242554438030       -1.31854568775110
H           -6.82300420476799        0.26198273022238       -1.83305425169082
H           -7.12674769624008       -1.19013243168921       -2.81727307490406
H           -5.61496435546464       -0.27717613943860       -3.03730943354760
H           -4.96445689411837       -3.72094758719400        2.45919886287139
H           -5.30291495538807       -4.95994735545092        1.22497531983240
H           -3.64457960534058       -4.34238576553360        1.42589026685911
H           -3.19019686437051       -2.15672596637187        2.22358886859783
H           -2.26561218915194        0.08212544977377        2.13347441212539
H           -3.02206181850891        2.57829085364919       -1.77506102677230
H           -1.56724161940126        3.24451104533357       -1.04856659138458
H           -1.96558743110948        0.27684495512026       -1.66519519742594
H           -1.24553501282040        1.44977004020529       -2.76974471299780
H           -0.77069653887640        1.60747641808113        0.98761662095506
H            0.58380375087087        1.90835513014287       -1.03760833188883
H            1.93420153157560       -0.79635651382964        0.62808689036626
H            2.21562939911146        0.83041942345359       -0.01996128278678
H            2.69864354619134       -0.17576667977179       -2.26021826334996
H            2.54041463813840       -1.79411538680707       -1.55437425015273
H            4.53354092771163        1.32852009437221       -1.60365454423718
H            6.83133338028220        1.50339960406873       -0.79276356911161
H           10.19640382988530        2.76069150659444        1.01271047950995
H           10.78607830788792        2.08393573621837       -0.58522212551577
H           11.17873496853628        1.21696381146891        0.97536013339158
H            6.82105803575599       -4.52317225652047        1.63027267904214
H            5.21942761862854       -3.75451768518698        1.72113758096251
H            5.83253549242929       -4.35796464956482        0.15842575837609
H            4.26636319297010       -2.64420532993562       -0.07404052722967
H           -0.39600248660559       -1.64541007906161       -1.84064523856383
H           -1.19103532846873       -1.29666273034037       -0.29251277822524
H            0.35832389301313       -2.15313971762550       -0.32401746110770
H           -4.69193435121209        2.92551620813441       -0.19589131859459
H           -3.92752781741000        2.95966136819542        2.74579957599523
H           -4.99010888934563        1.77275230617403        1.97780476758485
H           -5.47440849198363        3.46565219092038        2.06443231079882
H           -2.76176183833087        4.73881008771116        1.30249101086083
H           -3.11433434090832        4.81687466532097       -0.43146142027405
H           -4.37020365951657        5.18384560143852        0.74129912305579
H           -0.82054602983760        2.99202915275284        2.85117689776204
