72
 energy: 70.699341835131 xtb: 6.6.1 (8d0f1dd)
N           -1.66661081290703        2.95716504313585        2.28493578474752
C           -1.64648715139630        2.21707558503464        1.27782286364651
C           -2.78950238129415        2.08411868963819        0.30889941787039
C           -3.35200817584241        0.67266903410205        0.38255897046502
C           -4.30679052872975        0.25778542306145       -0.54981568629974
C           -4.86362635132997       -1.00568135841319       -0.49744073912468
O           -5.80426893716774       -1.48270001814989       -1.35495376394340
C           -6.36048164491834       -0.61015306940247       -2.30591655197609
C           -4.44867693978397       -1.91240228579237        0.50736781837422
O           -5.03712015521235       -3.13461487687643        0.46825038004090
C           -4.70519450970274       -4.07911537996043        1.45562926960843
C           -3.50346728601578       -1.49924627781178        1.42672451416589
C           -2.96689872928666       -0.21736295651265        1.36720854370333
C           -2.19955402355576        2.35507297374258       -1.10135162940674
C           -1.38239216095713        1.19742454940351       -1.71373499524558
C           -0.03008857504396        1.02647101028863       -1.13629039635072
N            0.49561412963475       -0.11233888536104       -0.68277621978869
C            1.87746704130974       -0.17023628689121       -0.26601395509027
C            2.84109303676449       -0.76246101453517       -1.34072830352997
C            4.25813669324393       -0.67200867190414       -0.87790981951795
C            4.99223618101463        0.49935830456038       -1.07450604300679
C            6.27424884985169        0.60929437098631       -0.63369090405420
C            6.96756797676462       -0.43113989697382        0.06364728941587
O            8.13800514359816       -0.24242258598090        0.43870326031721
C           10.58543598238447        1.92346171940456        0.45633681527905
C            6.17043932998674       -1.65285143956240        0.25468923918743
O            6.81418086112628       -2.66593787126488        0.90278124654554
C            6.12947579500614       -3.86589369417427        1.10728684739095
C            4.87220382648242       -1.73347758844276       -0.20280600600735
C           -0.21594165418242       -1.36612236843369       -0.79327767760084
C           -3.95000551943922        3.08420229115873        0.59236686908537
C           -4.62220372824161        2.79598353900145        1.93300426322899
C           -3.50772003382613        4.54490455001263        0.54217105341217
H           -4.62423238931989        0.94282409363497       -1.31884741585500
H           -6.82335078826191        0.26197672969674       -1.83247256680794
H           -7.12681618410440       -1.18944677868440       -2.81802375698335
H           -5.61502641298995       -0.27701985059146       -3.03608144020185
H           -4.95931959668579       -3.72091776921618        2.45824906689958
H           -5.30253686048923       -4.96005277298057        1.22637561612646
H           -3.64295624570469       -4.34529461322208        1.42161346149055
H           -3.18245663226218       -2.15998492277390        2.21608112290338
H           -2.25958015689863        0.08131591492677        2.12558847283925
H           -3.02796593910265        2.57481619593653       -1.77823224210989
H           -1.57312203356193        3.24602808350672       -1.05224058126827
H           -1.96258400252727        0.27758237859214       -1.66437917754846
H           -1.23886382839717        1.44464879122993       -2.77421336992457
H           -0.76849879114096        1.62119523704108        0.97273890614857
H            0.58190412858362        1.90848339172138       -1.04752008315163
H            1.94402111210385       -0.79117592808636        0.62996100067697
H            2.21712418627567        0.83836357520656       -0.01427308765334
H            2.71259533146901       -0.18526354128660       -2.25895979446288
H            2.55512929709718       -1.79769144139098       -1.54714535186436
H            4.54735221737212        1.32903400714450       -1.60375240157563
H            6.83283989084167        1.51761233010848       -0.79919918768959
H           10.11626067223599        2.69397586626844        1.00064608901293
H           10.69731014236427        2.02360419351600       -0.58582682629129
H           11.12057572801401        1.16515677831794        0.97351121180313
H            6.83245495428913       -4.50798543410173        1.63295323301094
H            5.23185904857674       -3.73737126788180        1.72580266354410
H            5.84265307605221       -4.34196061115552        0.16229806886480
H            4.29162256425148       -2.64094656964684       -0.07111502886062
H           -0.38771898162597       -1.65274331586744       -1.83336448315964
H           -1.18074455910031       -1.29144519763652       -0.28709303564545
H            0.36714141380666       -2.14878684181123       -0.31171576955847
H           -4.69494321749962        2.92765283679624       -0.19669770224710
H           -3.92080632522192        2.95818997311795        2.74305982841538
H           -4.98518803989184        1.77205870080381        1.97723475072356
H           -5.46738805685070        3.46574390261645        2.06921284934372
H           -2.75544119954539        4.73349801326595        1.30019240320517
H           -3.11293269776280        4.81457815272918       -0.43340593561897
H           -4.36162779952950        5.18602977007931        0.74476660750355
H           -0.83082446987184        2.99550289840747        2.86168135317832
