72
 energy: 11.510435590552 xtb: 6.6.1 (8d0f1dd)
N           -1.54343762641677        2.83074839054075        2.25163778566684
C           -1.57457963501620        2.16320385245939        1.18852543959536
C           -2.75784479121500        2.06724186750431        0.26367723014321
C           -3.32638089568139        0.65715238777145        0.34100645655803
C           -4.30447433600315        0.24959122075858       -0.56861943513815
C           -4.85209237253141       -1.01744302687431       -0.51966735918241
O           -5.81665943936259       -1.48791432420560       -1.35981329534387
C           -6.38508118953364       -0.61037580870808       -2.29742801000925
C           -4.41390545200843       -1.93271499862957        0.46266301599057
O           -5.00900641288180       -3.15993862140415        0.42835576440074
C           -4.67708632791790       -4.09361433191305        1.42289691056521
C           -3.44785258228634       -1.52851502846313        1.36349515407193
C           -2.91275630224619       -0.24630348838518        1.30280979752704
C           -2.20221823840969        2.31852065428321       -1.16287737092776
C           -1.29730062589936        1.18995139279411       -1.69276195262484
C           -0.01344531011231        1.10978627349797       -0.96391940616859
N            0.60030701041727       -0.08163804758403       -0.60830004657946
C            1.97141355444854       -0.08086680389545       -0.19186280940972
C            2.92302554655398       -0.61427355113859       -1.29370471619183
C            4.35784897784841       -0.51600942630060       -0.85096786550102
C            5.07374477593400        0.65172203469916       -1.04816102094356
C            6.38802497627201        0.76811537798888       -0.60854549526084
C            7.10999108707535       -0.21842916416407        0.05431758540263
O            8.45621387017681       -0.00040819381756        0.47982132908791
C            9.41471941595849        1.14641432434876        0.35274349926775
C            6.34616727172029       -1.44695200492554        0.26493159059727
O            6.94478512556516       -2.47363255410114        0.93156564885938
C            6.26126430280188       -3.68664317412482        1.13765845929585
C            5.01568233778253       -1.55873364914903       -0.18383182489124
C           -0.09904545632465       -1.33009624838802       -0.67505602992025
C           -3.89442677290235        3.07835814981357        0.58519320802780
C           -4.53555330125879        2.78222016114820        1.93962309224198
C           -3.43008987520453        4.53322912775976        0.54717758993023
H           -4.64842239164797        0.94371425474160       -1.31751737064172
H           -6.84108047660369        0.25958782588602       -1.81249848217846
H           -7.15936909118067       -1.18648343303464       -2.80227240625661
H           -5.65125084588018       -0.27126894554385       -3.03691337322380
H           -4.90643579521898       -3.71629877460445        2.42532962030682
H           -5.29450106973797       -4.96710201826353        1.21800551807472
H           -3.62044313351166       -4.38081806376228        1.37617847554051
H           -3.10517726265321       -2.19943381716065        2.13569488022498
H           -2.18187478290026        0.04387236115852        2.04185392637555
H           -3.03658370994025        2.44503739184153       -1.85508677748334
H           -1.62988210184035        3.24737374057284       -1.15789924040110
H           -1.84779719905949        0.25113717951031       -1.64437547604684
H           -1.07738666162839        1.39857332290679       -2.74950889023744
H           -0.70767049441190        1.63678594891466        0.73997087164098
H            0.63910613337635        1.96901391935758       -0.99587179748534
H            2.07395839762018       -0.71115085585359        0.69948813740543
H            2.27178648582388        0.93823609558513        0.07224225551908
H            2.75355281458168       -0.01545915473234       -2.19299793260895
H            2.64519880647290       -1.64535768566811       -1.52345187884786
H            4.60978018380573        1.48357542867016       -1.56393843160537
H            6.90184672177982        1.69606304485829       -0.79474433064220
H            9.08835880301012        2.05600451100026        0.86541424134499
H            9.64286257196594        1.40263434665850       -0.68472454028982
H           10.34252807010106        0.81203243358531        0.82984138045934
H            6.98303375268209       -4.32309736031920        1.64835462844287
H            5.37559135141454       -3.57222966953926        1.77453223836842
H            5.96555231971483       -4.16491611186344        0.19706847587591
H            4.44083539564508       -2.47654678291272       -0.03244793628498
H           -0.27256871236965       -1.64034503177219       -1.71066696097146
H           -1.06544014198213       -1.25894512125752       -0.16671030370997
H            0.49970923780228       -2.09125280112199       -0.17792718840004
H           -4.66121905606102        2.95140245838095       -0.18815568377059
H           -3.80741538564499        2.92068622556212        2.73032646436999
H           -4.90947165476425        1.76176358513044        1.97827306980438
H           -5.36791056514387        3.46136054268756        2.11007770052031
H           -2.64883776377583        4.69558958124470        1.28188565778359
H           -3.06228187100048        4.81297411036271       -0.43658510398361
H           -4.26674016131291        5.18539260830758        0.78893816129775
H           -0.66815956022077        2.83374552664409        2.76521168526798
