72
 energy: 70.794521137998 xtb: 6.6.1 (8d0f1dd)
N           -1.62213346622372        2.90762458372337        2.27712995173769
C           -1.61701819870418        2.20271899983741        1.24511472864264
C           -2.77675594257997        2.07911180062623        0.29224509200505
C           -3.34199399442618        0.66838746370593        0.36741449182540
C           -4.30544348299644        0.25604797249565       -0.55651598697240
C           -4.85910790434466       -1.00836661877164       -0.50358961991542
O           -5.80607249363249       -1.48229349369153       -1.35450529271669
C           -6.36850958897825       -0.60959036001113       -2.30226083105813
C           -4.43677247700195       -1.91943156660741        0.49200223165689
O           -5.02932225569638       -3.14317837107065        0.45451128701062
C           -4.69568436684552       -4.08399350610490        1.44361637467340
C           -3.48317862778652       -1.50968131560190        1.40399333293347
C           -2.94712578899845       -0.22747011030054        1.34341761788727
C           -2.20278827298458        2.34266141718130       -1.12526525555644
C           -1.35285928814276        1.19460971023989       -1.71343620722899
C           -0.01859321666138        1.03661430701855       -1.09292914002011
N            0.53644917916674       -0.10817309253425       -0.68888906263500
C            1.91362089291532       -0.14169097301184       -0.24238566955907
C            2.87840472471621       -0.71507105184818       -1.32398204689548
C            4.30669539849556       -0.62837601665639       -0.87096924300817
C            5.03314154607425        0.54274175547835       -1.06450313424349
C            6.32696357786999        0.65337568574277       -0.62854529194814
C            7.05171375835902       -0.35637638069768        0.05868737773070
O            8.24865472192571       -0.10924797803874        0.41721000166285
C           10.19257937468676        1.66156380901883        0.42017746126003
C            6.25300206136122       -1.58519990072041        0.25289153671484
O            6.87345294179276       -2.60497272944173        0.91823813160790
C            6.18114844838684       -3.80220829239139        1.12000120980068
C            4.94640816071899       -1.68351768374979       -0.20140903405701
C           -0.17219818221373       -1.36002003136749       -0.75375637005297
C           -3.93011541270722        3.08222072271487        0.58954008038552
C           -4.59084235900102        2.79135128040547        1.93543534627606
C           -3.47966662242727        4.54072607700492        0.54452089089704
H           -4.63330849556915        0.94368648679466       -1.31850022898032
H           -6.82940502848428        0.26188965158799       -1.82528015381105
H           -7.13775163598149       -1.18711781821721       -2.81289143077610
H           -5.62748522140563       -0.27382413248485       -3.03597166070931
H           -4.94012960532989       -3.71880727361047        2.44627483072957
H           -5.29984605833601       -4.96313755148476        1.22540233236914
H           -3.63520179875558       -4.35745063950199        1.40424849428692
H           -3.15439088123974       -2.17427005146326        2.18703999572703
H           -2.23142192713706        0.06839499785698        2.09492630385251
H           -3.03553074642842        2.52763668544475       -1.80799358177445
H           -1.59438760053208        3.24677690165074       -1.09210851368207
H           -1.92267102463005        0.26850083842313       -1.66217069988241
H           -1.17987990696257        1.42655050227041       -2.77377964059300
H           -0.74386181518268        1.62692726316682        0.88911617046737
H            0.61234020934157        1.91483561612380       -1.04778275156218
H            1.98942505535915       -0.76664218440043        0.65283379750366
H            2.23459193631881        0.87235197675651        0.01655556482878
H            2.73022170372309       -0.12903406685511       -2.23503700818884
H            2.58900112530466       -1.74743384755216       -1.53997021716029
H            4.57696301556060        1.37850372706441       -1.58259589184035
H            6.85756325166485        1.57740821826747       -0.80263455079477
H            9.74846861718061        2.45851273773477        0.95398989069938
H           10.31882236758517        1.79436099314360       -0.62006924685077
H           10.85630353575597        1.01414472462133        0.93726003701661
H            6.88980528081094       -4.44273923833932        1.64044749667927
H            5.28667259546710       -3.67716271055420        1.74470020587571
H            5.88910840881388       -4.27845792687928        0.17622601305567
H            4.38019714972722       -2.60425909957282       -0.05994708164829
H           -0.34482485514857       -1.65686363766425       -1.78966466761982
H           -1.13603824195350       -1.28088192355545       -0.24415377430945
H            0.41716927441424       -2.13172458795987       -0.26112452794889
H           -4.68352157287818        2.93787544570727       -0.19411156687500
H           -3.87938921098179        2.94511372093188        2.73783877023552
H           -4.95778209058966        1.76871220716460        1.97761637423702
H           -5.43117016957911        3.46492434958308        2.08492615714547
H           -2.71694686230083        4.71853894904914        1.29439258201434
H           -3.09454026902422        4.81310472289282       -0.43423104933249
H           -4.32699266063643        5.18662215695621        0.76168889918027
H           -0.77117444201890        2.93683453039507        2.82624024329105
