72
 energy: 40.378034214936 xtb: 6.6.1 (8d0f1dd)
N           -1.57658267369078        2.86827998927923        2.26135722219304
C           -1.59138413692751        2.17755749135512        1.21318424777193
C           -2.76562566781223        2.07270936884363        0.27604148612586
C           -3.33317835483213        0.66272339007726        0.35218148543730
C           -4.30508156879222        0.25240980358072       -0.56290431564947
C           -4.85424856283269       -1.01370826594645       -0.51224782235225
O           -5.81278133017792       -1.48599693685957       -1.35743882384655
C           -6.37787495588880       -0.61054156526109       -2.29926183222908
C           -4.42339220019072       -1.92669318372976        0.47519466419127
O           -5.01872520311117       -3.15403995035405        0.43979905515556
C           -4.68501149397784       -4.08949937083263        1.43183477259894
C           -3.46297881267929       -1.52018113748369        1.38096937022824
C           -2.92792506820325       -0.23793710721417        1.32007563471568
C           -2.20505261122369        2.32927786059813       -1.14800299048031
C           -1.32080302853369        1.19446970198108       -1.70552956939758
C           -0.01949624046568        1.08737472142859       -1.01733755704314
N            0.57720712261524       -0.10253038677698       -0.64276066129525
C            1.94851325292513       -0.10975800414783       -0.21390039115309
C            2.91007959773242       -0.65865835529994       -1.30424770636058
C            4.34830622067991       -0.56478178788876       -0.85913778218146
C            5.06514786696348        0.60366413425603       -1.05322021812504
C            6.38060479596601        0.72098099160820       -0.61411983629961
C            7.12675046014673       -0.24513530120712        0.04821438803650
O            8.52681030001498        0.09183764792276        0.44131580343957
C            9.63736044025243        1.28880900507136        0.37113056783629
C            6.35074649762472       -1.48937161224779        0.25896142178655
O            6.92777527194241       -2.52654937748581        0.92786209190914
C            6.22751334930601       -3.73127175200093        1.12859671256057
C            5.01933772141656       -1.60474921818393       -0.19570635172643
C           -0.13011885880195       -1.34536149853092       -0.70866965040508
C           -3.91003583345206        3.07959372027511        0.58718728844406
C           -4.55981182496217        2.78638401261624        1.93805043252649
C           -3.45202986191962        4.53633865014236        0.54616744843584
H           -4.64202936934084        0.94348888755993       -1.31778657891162
H           -6.83611076520997        0.26031951281080       -1.81799976408982
H           -7.15007729248633       -1.18697657799198       -2.80717797535464
H           -5.64085855707640       -0.27252866137879       -3.03605586052708
H           -4.92062537546588       -3.71738205262074        2.43469004812601
H           -5.29623862820472       -4.96619890219656        1.22188504525897
H           -3.62640194679038       -4.37045866143710        1.38850343062907
H           -3.12591344941641       -2.18861320231944        2.15777213637261
H           -2.20318161746074        0.05514585710383        2.06398677391469
H           -3.03972161771944        2.48204672429005       -1.83565069277587
H           -1.61578657544194        3.24717628351491       -1.12967873243799
H           -1.87804093116246        0.26005370057642       -1.65401948875688
H           -1.12331858454197        1.41113811807564       -2.76595198388572
H           -0.72338327203053        1.62997588588859        0.80353131994213
H            0.63323977686331        1.94837262199540       -1.02772684527253
H            2.04112827109936       -0.73737171253095        0.68087337351197
H            2.25318578488579        0.90935000554038        0.04801000638707
H            2.74451574270345       -0.06604303611493       -2.20896008134103
H            2.62197612340590       -1.68861669693810       -1.53041420517572
H            4.60073511893689        1.43702808248700       -1.56767894418322
H            6.88473770718168        1.65338456704163       -0.80239339812626
H            9.35120781697907        2.20075369143442        0.89519552854315
H            9.91104742584053        1.55561051853938       -0.64748279112000
H           10.52870338608976        0.88678996050100        0.86911741223061
H            6.94181241454056       -4.37226489753859        1.64343794714465
H            5.33855039618410       -3.61258154438293        1.76093471671028
H            5.93251607858427       -4.20928968047918        0.18744690416613
H            4.45178310803009       -2.53000759437592       -0.04405015990475
H           -0.30424117052271       -1.65041769042453       -1.74503851409481
H           -1.09629613754169       -1.26913752590384       -0.20052438923460
H            0.46277611642444       -2.11202662918040       -0.21208977225449
H           -4.67132861690535        2.94599832004803       -0.19088611893972
H           -3.83803552605474        2.93140675190075        2.73297370758101
H           -4.93048948110219        1.76480948483775        1.97838481499920
H           -5.39564231727854        3.46335170860299        2.10000755243455
H           -2.67831172870485        4.70406112402245        1.28719137139262
H           -3.07659809871448        4.81213231073549       -0.43565344957192
H           -4.29316944349337        5.18636080991518        0.77754474066315
H           -0.71127607183372        2.87794877684077        2.78894412259875
