72
 energy: 29.335412952335 xtb: 6.6.1 (8d0f1dd)
N           -1.56534542576898        2.85564188387351        2.25806607838806
C           -1.58539025395000        2.17234298412816        1.20515139343659
C           -2.76268760642377        2.07087645900493        0.27192750449798
C           -3.33074893251677        0.66095813083811        0.34829415320021
C           -4.30471804395815        0.25154116336715       -0.56496393673972
C           -4.85332617373754       -1.01487847887840       -0.51488767734662
O           -5.81396861820728       -1.48646265714414       -1.35832062754898
C           -6.38023272068101       -0.61031883146770       -2.29871562252040
C           -4.42016355733326       -1.92865201132076        0.47084906955643
O           -5.01555197195212       -3.15598965708145        0.43577895010586
C           -4.68250012783434       -4.09078741557745        1.42871107743258
C           -3.45790074431728       -1.52290688477127        1.37500771715473
C           -2.92283713715841       -0.24067188907848        1.31419208255892
C           -2.20372461334253        2.32577121870261       -1.15291283153277
C           -1.31276610661533        1.19295992989440       -1.70153029802176
C           -0.01746430200492        1.09466081203446       -0.99944451707937
N            0.58501367116764       -0.09645549994532       -0.63132613932795
C            1.95627457389362       -0.10054519491999       -0.20624304556087
C            2.91535026582287       -0.64398887130727       -1.30033057701268
C            4.35302701274146       -0.54905580601563       -0.85596926216726
C            5.06970346985002        0.61929194983640       -1.05108093439517
C            6.38580335223987        0.73586779495591       -0.61182310085164
C            7.13065822881391       -0.23434361721401        0.05075958221732
O            8.52386027860613        0.07824820471459        0.45829831468886
C            9.56110469631258        1.24326181908345        0.36383082076032
C            6.35569666960243       -1.47444727308045        0.26122005298073
O            6.93526779678668       -2.50975349581126        0.92985375151466
C            6.23943362213511       -3.71701658840078        1.13204437578731
C            5.02338117014326       -1.58869875010465       -0.19145370003800
C           -0.12008532337161       -1.34072391436957       -0.69727038451423
C           -3.90461179826703        3.07914291552559        0.58646359689909
C           -4.55163025605138        2.78498195628609        1.93846166417043
C           -3.44454325094062        4.53529525778147        0.54649773622701
H           -4.64407351483161        0.94364426536199       -1.31781144820338
H           -6.83770279147511        0.26023762825216       -1.81619350412450
H           -7.15314842050517       -1.18660932384709       -2.80564092290248
H           -5.64429500436983       -0.27190338360217       -3.03640486398277
H           -4.91603692168807       -3.71685263445838        2.43140968266012
H           -5.29581153506313       -4.96642709661917        1.22047979908876
H           -3.62453652832891       -4.37388106299846        1.38430553921905
H           -3.11893773200526       -2.19220060605227        2.15025512884391
H           -2.19602685733966        0.05144640683966        2.05646916251253
H           -3.03828240100756        2.46989708402590       -1.84217420645827
H           -1.61984197800336        3.24722456648505       -1.13891178689948
H           -1.86773887410002        0.25704933591176       -1.65113792063013
H           -1.10787947752441        1.40704619893487       -2.76072649317302
H           -0.71784624712836        1.63187002721818        0.78235559130252
H            0.63580341464061        1.95514230390852       -1.01681479168655
H            2.05218674324222       -0.72934893085383        0.68722304714127
H            2.25930941427419        0.91866804332774        0.05650935691297
H            2.74805078816076       -0.04856965948674       -2.20285075722242
H            2.62971391837495       -1.67390364722075       -1.52861594051884
H            4.60407118627038        1.45203492790877       -1.56596067165684
H            6.89069380624593        1.66789077791281       -0.80025790374529
H            9.26580190094665        2.15675586842632        0.88484980862490
H            9.82417774080908        1.50958284008333       -0.66060132325855
H           10.46339706696474        0.86065403633291        0.85590574379711
H            6.95607432634575       -4.35673208306158        1.64551313563191
H            5.35165496157349       -3.59974843660244        1.76596716583322
H            5.94404260361134       -4.19524977371598        0.19124088820108
H            4.45326091816883       -2.51169505098884       -0.03906197089675
H           -0.29410840491152       -1.64753355006350       -1.73330705111635
H           -1.08624749150293       -1.26559101521323       -0.18901710148929
H            0.47465094742827       -2.10544232185003       -0.20023342587166
H           -4.66772993715242        2.94788081565828       -0.19007205319833
H           -3.82774562511304        2.92789466898261        2.73189917003773
H           -4.92339159937586        1.76377526196417        1.97826711115406
H           -5.38630730175985        3.46268553263054        2.10326587743848
H           -2.66837923009095        4.70112098806861        1.28546422991426
H           -3.07160859864667        4.81237721946820       -0.43596287336623
H           -4.28418806359864        5.18607371525770        0.78131444140933
H           -0.69697444910669        2.86303660301669        2.78089033092725
