72
 energy: -5.215786037711 xtb: 6.6.1 (8d0f1dd)
N           -1.50117298207886        2.78278843306189        2.23836685269438
C           -1.55436471011842        2.15330125334439        1.15342356842300
C           -2.74826502329540        2.06103349417544        0.24719603676220
C           -3.31669366303212        0.64943894060297        0.32753061016076
C           -4.30306410885566        0.24642026445385       -0.57540186120651
C           -4.84939282241230       -1.02144620192695       -0.52881494899397
O           -5.81937364151983       -1.48943812082282       -1.36362829664908
C           -6.39369116308380       -0.60961641126810       -2.29566662533528
C           -4.40112747949779       -1.94044471689773        0.44646830414757
O           -4.99523593622490       -3.16599697346600        0.41354192255831
C           -4.66653500266147       -4.09871664030425        1.41061699098418
C           -3.42712990825882       -1.54041718605150        1.34060926014217
C           -2.89166105342797       -0.25816784476607        1.28076198105168
C           -2.19669638975705        2.30496433342950       -1.18169310263130
C           -1.26878225782488        1.18134871873342       -1.67137344851552
C           -0.00029862037650        1.12723716849163       -0.90290063872604
N            0.62712005640093       -0.05276146252317       -0.56830249909205
C            1.99614466112797       -0.04144098286194       -0.16416404381094
C            2.93178508257951       -0.55441037732300       -1.28189216903392
C            4.35821836763582       -0.44921081463853       -0.84056018029193
C            5.07473373699264        0.71563789389240       -1.04303971671211
C            6.38616006150938        0.82781120134064       -0.60426497442129
C            7.01974712604065       -0.21157501730450        0.05586672700094
O            8.31182350400804       -0.17130006958771        0.51770549781249
C            9.13545349504928        0.96838425958673        0.32661988809491
C            6.28412332857681       -1.40986714403197        0.27615870022531
O            6.95096335110063       -2.40160215482533        0.93034369131414
C            6.30514293252462       -3.62957367456531        1.14947177312136
C            4.97326830808492       -1.50616032187375       -0.16668761981595
C           -0.06097874728311       -1.30856184499889       -0.63026882041545
C           -3.87331767467599        3.07745528783605        0.58388816658831
C           -4.50316189527889        2.77663005688988        1.94263798000569
C           -3.40075770786917        4.52990145911847        0.54846998116239
H           -4.65642421252115        0.94485899171796       -1.31615944358531
H           -6.84785654114395        0.25876275969075       -1.80647279554496
H           -7.17044325949177       -1.18592201908081       -2.79606333431912
H           -5.66441013551986       -0.26933290032214       -3.03909804562005
H           -4.88802052464675       -3.71523925748922        2.41232794946103
H           -5.29246369404250       -4.96730388288543        1.21171501062134
H           -3.61283671634477       -4.39454469237306        1.35945450784816
H           -3.07709529364788       -2.21501750014374        2.10618625363711
H           -2.15307276520388        0.02714163192625        2.01423261869167
H           -3.02763788581626        2.39754929158968       -1.88172340125367
H           -1.64634784254941        3.24733726101244       -1.19419744373363
H           -1.81018767110217        0.23689076187436       -1.62712440347377
H           -1.02111116599677        1.38158697771009       -2.72167884317592
H           -0.68857981867528        1.64838180581654        0.65847957369148
H            0.64515545881250        1.98747460640406       -0.95055370332181
H            2.11146129195238       -0.67336668525998        0.72333199155272
H            2.29476493143169        0.97641199114234        0.10236291088177
H            2.76205616740682        0.05181066396502       -2.17406209968554
H            2.67163222097091       -1.58815502728647       -1.51515355351739
H            4.61808759330941        1.54619797863782       -1.56193748814491
H            6.91934366832860        1.74564488188822       -0.79200590493556
H            8.73852021295709        1.85896902384930        0.82570264061413
H            9.28922412056318        1.19389152642105       -0.73395319957292
H           10.09613269401021        0.71582074801901        0.77436370307281
H            7.04127504953015       -4.25450160495855        1.65295950893137
H            5.42582109901499       -3.52151778870866        1.79436429425089
H            6.00892680023479       -4.10907429119209        0.21006219043961
H            4.40404761809863       -2.41365074534739       -0.01061188643292
H           -0.23129214575964       -1.62637071565134       -1.66458806719325
H           -1.02804479375615       -1.24533056989133       -0.12210129828080
H            0.54604105496678       -2.06056523464804       -0.13135627392745
H           -4.64662022690362        2.95575694487966       -0.18341123303148
H           -3.76839987026984        2.90618829480756        2.73003767591926
H           -4.88168593311190        1.75791029722333        1.97845806437520
H           -5.33134964517605        3.45824092891792        2.12159979228058
H           -2.60967175728048        4.68910895833204        1.27464626460930
H           -3.04378034049340        4.81562888681206       -0.43783988528115
H           -4.23241944430612        5.18300457390283        0.80311459957553
H           -0.61067540480678        2.78085746578366        2.73203190124464
