72
 energy: 5.088854796344 xtb: 6.6.1 (8d0f1dd)
N           -1.53240305066114        2.81791148162069        2.24887882356187
C           -1.56929432364670        2.16000469614927        1.17992283004951
C           -2.75539998366905        2.06560128126689        0.25947931048841
C           -3.32407405568757        0.65523686993585        0.33736600213149
C           -4.30428330997228        0.24867619466582       -0.57049657613940
C           -4.85153415767690       -1.01862950626490       -0.52209799028317
O           -5.81795376921734       -1.48855987191421       -1.36062856495670
C           -6.38749177763385       -0.61022095756426       -2.29680412890759
C           -4.41071338571602       -1.93471383848322        0.45849485880492
O           -5.00555483957647       -3.16173466956618        0.42456736076628
C           -4.67434241814828       -4.09499552712796        1.41986622384188
C           -3.44269399809320       -1.53137511166106        1.35761924492071
C           -2.90752627902356       -0.24916942829205        1.29704162379527
C           -2.20119966287468        2.31489150662829       -1.16782847341975
C           -1.28957371134968        1.18825931325573       -1.68794012772281
C           -0.01077990618654        1.11662632472832       -0.94679160546414
N            0.60742770055288       -0.07399591289788       -0.59702213084712
C            1.97826250134627       -0.07098734139685       -0.18466478633458
C            2.92524157302324       -0.59944237311296       -1.29088317836963
C            4.35796799684730       -0.49937211973416       -0.84880108714466
C            5.07338259221141        0.66809148340335       -1.04697700393486
C            6.38650254293946        0.78407912706978       -0.60726177176063
C            7.08803401199391       -0.21540518237266        0.05537351489403
O            8.42022752111425       -0.04370697589296        0.49001791886692
C            9.34311199457827        1.09958637575115        0.34665800825525
C            6.33233872843522       -1.43612925537047        0.26767190871967
O            6.94673980713187       -2.45510886155676        0.93175787613033
C            6.27214164263082       -3.67185068631992        1.14072192607828
C            5.00531752128326       -1.54533418728083       -0.17968561254995
C           -0.08897022438397       -1.32459558429740       -0.66401016656736
C           -3.88918130720854        3.07805300114514        0.58469747325697
C           -4.52726003525354        2.78072228538589        1.94029999204392
C           -3.42266776206403        4.53225868685402        0.54763701083882
H           -4.65053101087898        0.94384867014749       -1.31739728262488
H           -6.84275228608839        0.25942061834266       -1.81063666885191
H           -7.16249610902100       -1.18619890543417       -2.80057874190247
H           -5.65472919861163       -0.27078884516823       -3.03721212088366
H           -4.90159971396580       -3.71602787067477        2.42214594702649
H           -5.29389571229495       -4.96730881543437        1.21658711915990
H           -3.61840445955165       -4.38432311455393        1.37196806225720
H           -3.09811516431540       -2.20315821382318        2.12820941229339
H           -2.17449237589415        0.03988238252194        2.03440819476553
H           -3.03512346640098        2.43275491312113       -1.86172588791128
H           -1.63453091482034        3.24725440546325       -1.16736314966212
H           -1.83775911653283        0.24790930571699       -1.64078000291469
H           -1.06271795760044        1.39442773990402       -2.74340847913758
H           -0.70265258098044        1.64000292561932        0.71872807281390
H            0.64064565476361        1.97562009915262       -0.98454948039823
H            2.08393338091939       -0.70179058975037        0.70566043188751
H            2.27791410106472        0.94790612751994        0.07995897239485
H            2.75515116632246        0.00142807483284       -2.18812501801354
H            2.65139329801483       -1.63108531609808       -1.52156629435854
H            4.61064677001011        1.49931202331052       -1.56336114785680
H            6.90588137518381        1.70934959434997       -0.79300309862391
H            9.00062396329604        2.00619623705855        0.85506135853406
H            9.55330218157993        1.34970630653483       -0.69682954117633
H           10.28167348263985        0.78876180699052        0.81569550019979
H            6.99729494243344       -4.30576213097887        1.64967535840646
H            5.38796344289280       -3.55910566551892        1.77945526165578
H            5.97629941478047       -4.15030634027688        0.20039845392434
H            4.42944893866069       -2.46011277075455       -0.02801393636603
H           -0.26197464468295       -1.63635395729123       -1.69943317885704
H           -1.05548678024794       -1.25586399235043       -0.15557589479048
H            0.51200666497211       -2.08382806056662       -0.16698273203717
H           -4.65774872795522        2.95301820182999       -0.18703207915768
H           -3.79706086436480        2.91686149669553        2.72971425180184
H           -4.90228089529732        1.76066304956140        1.97823711829786
H           -5.35849058912902        3.46050918536932        2.11346037211634
H           -2.63884200635293        4.69313379187260        1.28014749978389
H           -3.05753111701204        4.81346451102186       -0.43675937744936
H           -4.25786596539222        5.18496662078041        0.79286628280713
H           -0.65343444032358        2.81948155371755        2.75764637965460
