72
 energy: 19.525344928337 xtb: 6.6.1 (8d0f1dd)
N           -1.55432333795395        2.84355019804960        2.25467890362003
C           -1.57992148359313        2.16771459698809        1.19687501006481
C           -2.76030897677698        2.06905422430020        0.26786117279093
C           -3.32863525658268        0.65907937862181        0.34474226782758
C           -4.30465376155877        0.25053494052802       -0.56668587356336
C           -4.85270894138735       -1.01621540260438       -0.51718446394754
O           -5.81530553563874       -1.48726078021167       -1.35899658837410
C           -6.38259996746907       -0.61044529159999       -2.29803514994038
C           -4.41706647533306       -1.93071562706616        0.46685994648042
O           -5.01231647542194       -3.15805668026404        0.43214926985588
C           -4.67977790977274       -4.09225394401412        1.42589119508465
C           -3.45294783189718       -1.52569310297420        1.36937925279610
C           -2.91788810112561       -0.24346025020834        1.30860922299608
C           -2.20322238642294        2.32209210331295       -1.15793513651852
C           -1.30528409876777        1.19141024960751       -1.69732393271856
C           -0.01608840305271        1.10236228451153       -0.98142904548930
N            0.59280972676348       -0.08910491898646       -0.62003545460810
C            1.96409470582496       -0.09063447789080       -0.19924176017976
C            2.91991801568008       -0.62897341215843       -1.29693812669677
C            4.35654687364872       -0.53266890463580       -0.85351350872813
C            5.07291640893363        0.63539197943193       -1.04948167719607
C            6.38812854869333        0.75146225448784       -0.60971286245362
C            7.12375947050736       -0.22614924097714        0.05293910916973
O            8.49028302645638        0.04044045630657        0.46956327154217
C            9.48685211560849        1.19414425229841        0.35818878623958
C            6.35392654043481       -1.46066955870380        0.26276311215533
O            6.94097595944611       -2.49230989947422        0.93117612074228
C            6.25025564751318       -3.70198425039610        1.13479117706573
C            5.02249724912632       -1.57329458029879       -0.18806570680196
C           -0.10940091288474       -1.33547700438907       -0.68621409973866
C           -3.89960827463743        3.07875906981759        0.58582075267957
C           -4.54375083248138        2.78367814823717        1.93901243599559
C           -3.43738430439559        4.53426211357933        0.54678540795924
H           -4.64631676572855        0.94362569322472       -1.31757442519739
H           -6.83933586284881        0.25983058107848       -1.81433265397526
H           -7.15618716626108       -1.18663154399175       -2.80396435163131
H           -5.64768065309475       -0.27167751838705       -3.03658399705790
H           -4.91123347867455       -3.71662672474939        2.42846331574530
H           -5.29509373508420       -4.96686485290183        1.21934517879910
H           -3.62245563039940       -4.37736553580130        1.38034495197542
H           -3.11213340322966       -2.19578177692618        2.14312755303191
H           -2.18904462769094        0.04771838905950        2.04925947387160
H           -3.03783598772830        2.45733919070427       -1.84856581818628
H           -1.62509587299003        3.24727781358647       -1.14853937863032
H           -1.85795583535058        0.25404680165877       -1.64776744438095
H           -1.09284957654461        1.40268855287223       -2.75533991494461
H           -0.71275364652781        1.63427208393259        0.76110956388226
H            0.63708788446933        1.96219185913766       -1.00675846800278
H            2.06341592936355       -0.72026217111832        0.69313871004543
H            2.26558482729420        0.92857090518719        0.06424511006560
H            2.75119266560678       -0.03184012950217       -2.19788196560438
H            2.63787213621666       -1.65935428156994       -1.52603471256956
H            4.60811052529881        1.46801388858772       -1.56451189899225
H            6.89734587441152        1.68167614941994       -0.79647365113868
H            9.17708153859757        2.10638172411447        0.87530155790595
H            9.73304927180371        1.45592545848871       -0.67286355421241
H           10.40166463897347        0.83435497621845        0.84307225373597
H            6.96914317802219       -4.34035243569304        1.64699088303064
H            5.36334390687926       -3.58582491086314        1.76996077474163
H            5.95474002754742       -4.17994643726944        0.19390655909932
H            4.45088135538752       -2.49397910215943       -0.03576014771465
H           -0.28329641842925       -1.64411290699728       -1.72200678167786
H           -1.07565269665946       -1.26226267670946       -0.17785412630660
H            0.48736002522518       -2.09840027422669       -0.18909120831876
H           -4.66456281087811        2.94973628293782       -0.18914784704350
H           -3.81771812707687        2.92441663027322        2.73102972047376
H           -4.91658166988476        1.76284082275832        1.97828846962616
H           -5.37725648640981        3.46212898285915        2.10663744239828
H           -2.65869801490201        4.69829513223740        1.28365171102021
H           -3.06696074859032        4.81258111642491       -0.43634078354607
H           -4.27551355299898        5.18579643471501        0.78502285555458
H           -0.68256571085154        2.84840034770670        2.77291964590977
