72
 energy: 71.157263331383 xtb: 6.6.1 (8d0f1dd)
N           -1.65711202760315        2.94418215866739        2.28625902170375
C           -1.63874874587074        2.21611726091898        1.27042272299654
C           -2.78615115914235        2.08345433642300        0.30484714190198
C           -3.34938079517774        0.67206974875617        0.37889157199210
C           -4.30662394909170        0.25772668096139       -0.55123726245464
C           -4.86367393085291       -1.00575311250659       -0.49838985030814
O           -5.80439914370731       -1.48231953815351       -1.35490303641007
C           -6.36249552389290       -0.60990406871748       -2.30486352658100
C           -4.44615227420070       -1.91369777068210        0.50362800013168
O           -5.03587532334653       -3.13666662230510        0.46524518649480
C           -4.70285502703417       -4.07991412277179        1.45286120355230
C           -3.49842433281292       -1.50176466233715        1.42089656207135
C           -2.96190140389573       -0.21981846441861        1.36116949202959
C           -2.20119262536764        2.35186883520664       -1.10760137545324
C           -1.37571043869241        1.19618455667778       -1.71721567372747
C           -0.02446737233124        1.02201515730069       -1.13891193089181
N            0.50528225487439       -0.11257365337585       -0.68973646796157
C            1.88547508469619       -0.16420731872017       -0.26117572425864
C            2.85234358559470       -0.75419438201012       -1.33605119940018
C            4.27183457617840       -0.66512520117503       -0.87568195914839
C            5.00457318713654        0.50592315121550       -1.07388743934565
C            6.28664014681110        0.61954672541624       -0.63471865834828
C            6.98761811316847       -0.41355416990139        0.06096005570942
O            8.16049301247382       -0.20293689299391        0.42493899620992
C           10.49471099479242        1.85792424799288        0.45027007382532
C            6.19119494313334       -1.63793498635605        0.25462863648768
O            6.82909237015565       -2.65139807223493        0.90638996811762
C            6.14206047455275       -3.85039904404210        1.11078261093656
C            4.89111606730028       -1.72384611188570       -0.20117119536974
C           -0.20534330032751       -1.36575882056558       -0.78449075619719
C           -3.94544867995719        3.08369865915293        0.59130454669808
C           -4.61447116994000        2.79482017553072        1.93352800928500
C           -3.50096197241589        4.54387895716873        0.54279558203027
H           -4.62637731213560        0.94334442677013       -1.31874024456852
H           -6.82489804695763        0.26206753138240       -1.83047882547897
H           -7.12965461156738       -1.18862232802260       -2.81670197510460
H           -5.61837627474557       -0.27587720856844       -3.03609291528384
H           -4.95434006622153       -3.71996354849844        2.45549806592566
H           -5.30205691494007       -4.96047373262422        1.22751528892329
H           -3.64102593119032       -4.34804810500535        1.41724288868747
H           -3.17547753891637       -2.16365548179262        2.20861030403755
H           -2.25233309112469        0.07785627797367        2.11779349201589
H           -3.03097881549829        2.56401081221607       -1.78610912978731
H           -1.57816578319126        3.24526617978890       -1.06256710853965
H           -1.95324606863153        0.27492104498053       -1.66598486594312
H           -1.22495381620128        1.44003716921836       -2.77750621499604
H           -0.76257617010164        1.62359686941952        0.95324897768398
H            0.59067310192217        1.90197372439537       -1.04979837290597
H            1.95504240764492       -0.78617590785235        0.63465371460355
H            2.22026646030976        0.84590446482965       -0.00647149156517
H            2.71950707274467       -0.17625193316952       -2.25280824874499
H            2.56770269116628       -1.79036342080398       -1.54429228685078
H            4.55724589570331        1.33750815335317       -1.59855626563067
H            6.83618441296452        1.53254498318534       -0.80321195892831
H           10.02592055901572        2.63204910793406        0.98950359051065
H           10.60343784631542        1.96443737347212       -0.59130069289644
H           11.05726642140370        1.12074687994262        0.96872596763670
H            6.84691618628964       -4.49140928622561        1.63482597872297
H            5.24545046145407       -3.72319138673210        1.73128267783410
H            5.85400784836160       -4.32688089722027        0.16622097262721
H            4.31334057717843       -2.63395853446124       -0.06762498085804
H           -0.37761181755553       -1.65531640002116       -1.82321927858262
H           -1.16952292523357       -1.28822677025672       -0.27663506860689
H            0.37949883428799       -2.14472065282354       -0.29885656271774
H           -4.69294902637370        2.93068612797287       -0.19640781751944
H           -3.91043971868205        2.95494213153208        2.74152294211461
H           -4.97838255947858        1.77117433720906        1.97719365192780
H           -5.45829575416971        3.46569236328045        2.07328620043860
H           -2.74598056126089        4.72954982956531        1.29875459031078
H           -3.10861216599629        4.81394929122313       -0.43366616942455
H           -4.35312408169420        5.18630504270466        0.74926177897618
H           -0.81568244420869        2.97951944686597        2.85321889636324
