25
 energy: -42.198372756127 gnorm: 0.007113215383 xtb: 6.6.1 (8d0f1dd)
C            3.77348439494353        0.58571896791491        0.11940508934609
N            2.68785101620335       -0.18955434780273        0.03803295770265
C            2.69601024722866       -1.54534190789848       -0.01487274026039
N            1.41157842572083       -2.02262870457173       -0.05702166438248
C            0.57150356044997       -0.96663879999254       -0.03763754201222
C            1.34720246881770        0.20988133921360        0.00653963171004
C            0.66551306403650        1.44506696989358       -0.01981034074595
O            1.18741233794682        2.65885580880476       -0.06566791626631
N           -0.67685959546770        1.40443130132823       -0.00728168397741
C           -3.39207924620348        1.52687006206559        0.08693024716852
C           -1.36758402975404        0.30311989367026       -0.01264651683215
O           -2.68162701720293        0.29574342088555       -0.00276291357392
N           -0.79117141669520       -0.95970271388961       -0.04947749606249
C           -1.55574346115237       -2.18769604455229       -0.08766998141547
H            3.69207900360613        1.64146279588900        0.26458586807030
H            4.73517930747578        0.11530613194652        0.13953404102731
H            2.14276471444704        2.67326227458709       -0.19858325683288
H            3.57295251300880       -2.15388287340296       -0.00929073526986
H           -2.72055650037459        2.38094890253127        0.02886805895182
H           -4.10276830005562        1.55031836193891       -0.73604193257405
H           -3.92820094216154        1.53729848164914        1.03616894502606
H           -1.29953013348775       -2.81806273800187        0.76562906254239
H           -1.35918330351822       -2.72863234391106       -1.01535843595930
H           -2.61245195256339       -1.93998789039597       -0.04020473660106
H            1.16465635885072       -2.99791780630650       -0.10019439088531
