  25
        -42.10245730
 C          2.2133535526        1.6440853548       -0.5542325534
 N          1.8418147744        0.2609094131       -0.3920197907
 C          2.6639093970       -0.7365724967       -0.6774791464
 N          2.1074039187       -1.8980549315       -0.3478444262
 C          0.8460025721       -1.6866187510        0.2250475459
 C          0.6758855349       -0.2517093958        0.1687877196
 C         -0.4212863757        0.4929347865        0.7039318958
 O         -1.2379187275        0.0511948135        1.4925919541
 N         -0.5175445770        1.8685947947        0.3143630613
 C         -1.0139215634        2.1859122952       -1.0188178909
 C         -2.4235276085        1.8930252463       -1.1260420805
 O         -3.4787403319        1.5803216004       -0.7711471344
 N          0.2054673637       -2.7238027430        0.5999061269
 C         -1.0507371324       -2.8840980989        1.2126929571
 H          1.7235475239        2.2490918625        0.2049735843
 H          3.2929025654        1.7377528187       -0.4492885474
 H          1.9311798211        2.0120884391       -1.5418900404
 H          3.6418866697       -0.6166598857       -1.1031755520
 H         -1.0552067907        2.3580008515        1.0281963281
 H         -0.4615295804        1.6172708572       -1.7754218974
 H         -0.8594262849        3.2562616949       -1.2141157162
 H         -0.9313603448       -3.6133284841        2.0181306198
 H         -1.7440354983       -3.3152481913        0.4849978025
 H         -1.4714415768       -1.9568447205        1.6119490550
 H          2.5085161687       -2.8197968817       -0.4357956898
