  25
        -42.14591599
 C          3.8113386410        0.8320513780        0.1203642714
 N          2.8302076067       -0.2127027128        0.0456550421
 C          3.0455543649       -1.5116869916       -0.0282426775
 N          1.8944743835       -2.1873750226       -0.0955807252
 C          0.7949817290       -1.2937678078       -0.0796211815
 C          1.4425207590        0.0197076903        0.0270092222
 C          0.8387689942        1.1962846832        0.1160634341
 O          0.2576643476        2.1941555297        0.1829234377
 N         -3.0253451393        1.7624079068       -0.2265948494
 C         -3.5337711721        3.0181706699       -0.6065355505
 C         -3.1903799342        0.6867923119        0.2478024593
 O         -3.1432978530       -0.3890802675        0.6754842340
 N         -0.4368924939       -1.5096109687       -0.1459285863
 C         -1.1015658381       -2.7626976212       -0.2228958970
 H          3.6896798166        1.4001707465        1.0450736829
 H          4.8095161036        0.3996268799        0.0966195361
 H          3.6967778187        1.5159744413       -0.7231847235
 H          4.0206326975       -1.9635407374       -0.0379659960
 H         -2.6884087403        3.6962530028       -0.7282051976
 H         -4.0650106179        2.9374285039       -1.5577455214
 H         -4.2111419259        3.4168123617        0.1517646323
 H         -0.5550115421       -3.5905952136        0.2391429447
 H         -1.2958818265       -3.0005711472       -1.2714264501
 H         -2.0650427456       -2.6372866291        0.2713886460
 H          1.8126272422       -3.1902461397       -0.1638405833
