  25
        -42.13216368
 C          3.2460260930        1.1196046504        0.0162502701
 N          2.2562347326        0.0799934507       -0.0009375338
 C          2.4771764808       -1.2547360243       -0.0063975043
 N          1.3686896549       -1.9609995237       -0.0062035648
 C          0.3640478587       -1.0581191788        0.0006763620
 C          0.9032960590        0.2382152094        0.0049995052
 C          0.0682304993        1.4146412452       -0.0025096352
 O          0.4586422859        2.5600591861       -0.0142238369
 N         -1.2854791250        1.0792210973        0.0020359189
 C         -2.2460085073        2.1678092049       -0.0010643564
 C         -1.8413251709       -0.1952592729        0.0038571298
 O         -3.0333724225       -0.3572392782        0.0062138232
 N         -0.9623986337       -1.2844417639        0.0016215015
 C         -1.4957312860       -2.6248157246       -0.0015841190
 H          3.7547084872        1.1399580448        0.9823321288
 H          3.9873438961        0.9429925344       -0.7632256028
 H          2.7597266870        2.0807671867       -0.1473635618
 H          3.4562333686       -1.6928969045       -0.0115215797
 H         -1.6982439559        3.1084263499        0.0062110664
 H         -2.8790504586        2.1053004867       -0.8880044719
 H         -2.8920313249        2.0977497268        0.8757348989
 H         -1.1414603016       -3.1661031044        0.8762793986
 H         -1.1589524406       -3.1554908424       -0.8928973408
 H         -2.5828369185       -2.5624420547        0.0089035585
 H          2.5434964829       -4.5777057137       -0.0404305519
