72
 energy: -99.706710302194 xtb: 6.6.1 (8d0f1dd)
N           -1.65916882586948        2.93682965757995        2.29974533289293
C           -1.60579030753257        2.21239427576405        1.27268854772300
C           -2.74990469981564        2.07205020255562        0.30846969945164
C           -3.35543508596904        0.68929952257505        0.41683444634364
C           -4.43892663789313        0.40770009893696       -0.42857685747721
C           -4.86990655351700       -0.92269719690515       -0.46185085952794
O           -5.79343135205252       -1.40784979749344       -1.33667198738533
C           -6.25675771583963       -0.47631158147072       -2.27202456302734
C           -4.37006477412318       -1.90280539638127        0.44926219535485
O           -4.92089583598272       -3.16045828026741        0.38322442603393
C           -4.61371108202594       -4.10775048176453        1.38614005746917
C           -3.40857967669702       -1.53349670270257        1.36667133003075
C           -2.88104517388957       -0.24981711943608        1.31473828661387
C           -2.18620311496731        2.24375498404954       -1.13007464813961
C           -1.31399346444598        1.08654519595337       -1.65984232438581
C            0.02121920087618        1.03459575381286       -1.02203719409145
N            0.64151920320973       -0.12454798007493       -0.59412431569090
C            2.02202188855637       -0.09249929732661       -0.22309942235109
C            2.98074705651160       -0.58255270846890       -1.33559389319900
C            4.40178514081158       -0.46420014847744       -0.87980348185719
C            5.11453128514092        0.70467086994779       -1.07572290603556
C            6.41948583307588        0.82807644629306       -0.62050885591063
C            7.03169126181503       -0.21769983260561        0.04710997731788
O            8.30728237453877       -0.21262807817008        0.53104312588695
C            9.09616599450528        0.93061181290072        0.32849231212838
C            6.31006298489406       -1.41321387816872        0.26380071547012
O            6.99396035198725       -2.38812980859182        0.92854281497877
C            6.36045354480667       -3.61897893468002        1.15996121728903
C            5.01121949729098       -1.51759593453036       -0.19624136034799
C           -0.01152188560305       -1.39969292485705       -0.68502032853922
C           -3.90930493780448        3.07038628196074        0.55426197192487
C           -4.63125750905659        2.75624910786224        1.86391725656950
C           -3.47895288938278        4.52579217337081        0.48872412403962
H           -4.91389432577739        1.31353101331690       -0.91556783249707
H           -6.68072440943311        0.38907378091358       -1.75644728809407
H           -7.02348921047534       -0.97369935968848       -2.85894564184497
H           -5.43882665022368       -0.14329060275737       -2.92234760870233
H           -4.86361275714330       -3.75048218169571        2.39161722504140
H           -5.22651644455725       -4.98471227996105        1.17044445882432
H           -3.56068296334618       -4.41368766128619        1.37283153275147
H           -3.05134376375083       -2.22787864479601        2.11410520534918
H           -2.12332764144327        0.01757647818592        2.03512253615124
H           -3.03173699763425        2.35657087644256       -1.81108062034708
H           -1.59621541739657        3.16076655954521       -1.16954804015446
H           -1.84857648821495        0.14480885787694       -1.54334371182316
H           -1.19733027507705        1.25974497757322       -2.74379411285852
H           -0.71499922617275        1.64905545936003        0.94963480087821
H            0.65011964757197        1.90522052193157       -1.07509084707809
H            2.16564166290439       -0.71762032526584        0.66606561723090
H            2.29193157860572        0.93309544717302        0.03865887060209
H            2.81523468927495        0.02795119670299       -2.22458961942637
H            2.74092323168059       -1.61902761240997       -1.57731831111950
H            4.65721304127239        1.53161600361027       -1.59841796297803
H            6.95101420386891        1.74940351009666       -0.79898170070961
H            8.67031355343297        1.81142364956399        0.82154789187991
H            9.23555526894741        1.14439359807037       -0.73692071851965
H           10.06137154972184        0.70028905384177        0.77724557667766
H            7.09699143003245       -4.23180632755849        1.67776410693901
H            5.47486503934784       -3.50780622706618        1.79527630348616
H            6.07576956539062       -4.11208889182263        0.22398454157961
H            4.45091847527053       -2.42698200805284       -0.04123683961783
H           -0.17469214303452       -1.72098319416982       -1.72225437655580
H           -0.97978172390424       -1.36057483657678       -0.17841534243567
H            0.60573229733846       -2.14522817531211       -0.18727577826407
H           -4.63082674181938        2.93389014134543       -0.26026912309431
H           -3.95220112079449        2.87572515060409        2.70045314839694
H           -5.00532426441549        1.73393092908242        1.86398365885743
H           -5.47544134729196        3.42970392454879        1.98722032416419
H           -2.74535071918035        4.73906486223252        1.25653029433867
H           -3.06174052321327        4.75422803092662       -0.48922171193821
H           -4.35134433302348        5.15597631897629        0.64430460352769
H           -0.81387684842346        2.95589340082270        2.86697429963985
