  25
        -42.10250360
 C          2.2134003666        1.6431744215       -0.5659880314
 N          1.8354553923        0.2619662351       -0.4001715347
 C          2.6514130793       -0.7399671404       -0.6886793849
 N          2.0921971632       -1.8979582183       -0.3515405284
 C          0.8364178777       -1.6789074742        0.2308534225
 C          0.6718715432       -0.2440964251        0.1706945383
 C         -0.4194587069        0.5051633631        0.7130386765
 O         -1.2245556498        0.0684639676        1.5161358671
 N         -0.5228651914        1.8760815109        0.3150437612
 C         -1.0052648763        2.1917803678       -1.0225416685
 C         -2.4071201541        1.8662290675       -1.1545263070
 O         -3.4523968691        1.5238159545       -0.7911789443
 N          0.1946770949       -2.7118217288        0.6158634271
 C         -1.0572330130       -2.8655470323        1.2386675177
 H          1.7148410280        2.2543326265        0.1824539521
 H          3.2916147653        1.7348102350       -0.4461553530
 H          1.9469733244        2.0054887222       -1.5601556923
 H          3.6265483369       -0.6251498558       -1.1221575736
 H         -1.0661742330        2.3665314573        1.0238593542
 H         -0.4323121305        1.6397704795       -1.7758238556
 H         -0.8697955465        3.2657366417       -1.2093786042
 H         -0.9381868822       -3.6063988362        2.0334080644
 H         -1.7634174079       -3.2786992892        0.5128198576
 H         -1.4630514444       -1.9384477536        1.6533521225
 H          2.4886429625       -2.8218233588       -0.4385783317
