  25
        -42.17075681
 C          3.5668759694        0.7712283853       -0.0725252659
 N          2.4946701244       -0.1860307779       -0.0227347876
 C          2.6064233681       -1.5148515873        0.0023146504
 N          1.3845677886       -2.0837629616        0.0418305032
 C          0.4448124902       -1.0872316797        0.0432288166
 C          1.1597348929        0.1200354451        0.0022288062
 C          0.4533746529        1.3759233203       -0.0023128477
 O          0.9704075184        2.4794088898       -0.0328518419
 N         -0.9205207433        1.1867086777        0.0333635136
 C         -1.7675169431        2.3596201083        0.0332265991
 C         -1.5938982031       -0.0621621830        0.0604308200
 O         -2.8071321750       -0.0614064345        0.0733539896
 N         -0.8617598735       -1.1990015637        0.0693471362
 C         -4.5807012403       -2.4099410584       -0.2036043199
 H          4.2325402851        0.6424997421        0.7818048866
 H          4.1454353263        0.6477404967       -0.9893267837
 H          3.1394997939        1.7742604148       -0.0506537407
 H          3.5344132232       -2.0527594989       -0.0087287441
 H         -1.1314628441        3.2430067658       -0.0150628199
 H         -2.4429323859        2.3298124789       -0.8239628757
 H         -2.3751842136        2.3804071752        0.9404422246
 H         -4.4579339892       -3.0448387371        0.6511360544
 H         -4.5842620555       -2.8350998072       -1.1884729108
 H         -4.6734361390       -1.3499627922       -0.0731648662
 H          1.1832398027       -3.0731769441        0.0730791909
