25
 energy: 33.548948716007 xtb: 6.6.1 (8d0f1dd)
C            3.68150796021560        2.40785613096797        0.31138133650260
N            2.30235234921086       -0.41840887214613       -0.06385823101992
C            2.43873638867398       -1.69750167968350       -0.04235411075465
N            1.22777639697350       -2.36215650590610        0.00294958350927
C            0.28286578368987       -1.38798083164557       -0.05081234966573
C            0.96157170281621       -0.17635488406516       -0.08914430986987
C            0.21997368489037        1.05755932240260       -0.16366776037630
O            0.68141933747174        2.17279932649508       -0.24146461198200
N           -1.15381304280615        0.87671211560050       -0.06941829283172
C           -1.96460924785716        2.08323820642248       -0.01571830486508
C           -1.83092527290413       -0.31198328238680       -0.05156172275612
O           -3.04115270175624       -0.35042944470192       -0.01973705031088
N           -1.07418529262254       -1.48271695606222       -0.07290815833358
C           -1.81072796634901       -2.72225966421089       -0.10617906679950
H            4.06012324772221        2.61797142903129        1.27287656434537
H            4.29754879631204        2.40279753870879       -0.53719746919164
H            2.65073125245799        2.54875201314716        0.10361213369186
H            3.38944900803260       -2.17725828746583       -0.06742128774130
H           -1.30779967744884        2.90033326294750       -0.29316164155627
H           -2.77357310502072        2.00115349670358       -0.73409455284440
H           -2.31542840268473        2.23384215759244        1.00589392123649
H           -1.56572925199238       -3.35196078535116        0.75038569579389
H           -1.62407823760952       -3.26944908065282       -1.03123423300132
H           -2.86305145468125       -2.43655032706748       -0.05190084632119
H            1.11626464451115       -3.36490649688948        0.05934947074581
