25
 energy: 39.555047249153 xtb: 6.6.1 (8d0f1dd)
C            3.32519375411771        1.80482082503706        0.19863400900359
N            2.38770721016703       -0.15103739942229       -0.05421062133133
C            2.58116612893511       -1.45096778768958        0.09771868917604
N            1.38870830512160       -2.14583233224240        0.06007431438398
C            0.39806766177043       -1.22803351203240       -0.02445902238125
C            1.01909583391123        0.02093663460070       -0.04669492676539
C            0.21630222091195        1.20645612402097       -0.10241323223193
O            0.58668112321924        2.35873334286224       -0.22042187963960
N           -1.17297367417534        0.94180651807540       -0.04741078633105
C           -2.04532543785680        2.10559973206246       -0.01778940841723
C           -1.78234583794756       -0.27458309065386       -0.04729135166335
O           -2.98944201779664       -0.38540554082169       -0.03873560834337
N           -0.95376228010193       -1.40800548441145       -0.05538840382589
C           -1.63332739146944       -2.68149277494861       -0.06419771864658
H            3.67840870346791        1.95861935657356        1.17125546147517
H            3.99981746846127        1.75874621303495       -0.62103937585280
H            2.38664289510091        2.27042363965916       -0.00160047725127
H            3.51572868148304       -1.98166995833019        0.01504094748348
H           -1.38079588491882        2.96280170867418       -0.10417866830365
H           -2.78672287365183        2.03489666147565       -0.79123107838156
H           -2.52596469429715        2.16011196928806        0.94582675634838
H           -1.38869338817581       -3.26359383959884        0.82519793002798
H           -1.38855736703087       -3.24773225258543       -0.96377141882081
H           -2.69958066586732       -2.44826236862983       -0.06333502441657
H            1.29408498802381       -3.14744093308776        0.04000499127934
