25
 energy: 35.332457166929 xtb: 6.6.1 (8d0f1dd)
C            3.55747461777394        2.18280910678889        0.29085873581253
N            2.32903544005972       -0.30556108358970       -0.06645558637482
C            2.48819343732509       -1.58114495193823       -0.03794643886192
N            1.29187085907546       -2.27635872431930        0.01668664751891
C            0.32406070817512       -1.32735678631238       -0.04906784166968
C            0.97873027274890       -0.10053087484495       -0.09398487357689
C            0.21121971371161        1.10768374476891       -0.18705358728691
O            0.64493158780148        2.23192081736108       -0.29073333222512
N           -1.16004626491262        0.89606454744894       -0.07740258000145
C           -1.97528926338371        2.09666628804060       -0.01623830705424
C           -1.81513705337281       -0.30100828057880       -0.05338346738970
O           -3.02460287796426       -0.36509107530082       -0.00140949742991
N           -1.02975507946542       -1.45677202934344       -0.08259414912444
C           -1.74929871687823       -2.70692012627525       -0.08293153872994
H            3.93043947895679        2.35047856458718        1.26202396302995
H            4.18229404424418        2.15118282153449       -0.54518909574954
H            2.54921397359103        2.42831592084251        0.08611558029464
H            3.43694404894755       -2.07930031679611       -0.11477511546064
H           -1.29924921815361        2.91388017274784       -0.25543999637051
H           -2.80487582221119        2.01336305952525       -0.69968541217362
H           -2.30039257048235        2.23767432969254        1.01201916587499
H           -1.52437811257425       -3.30278994052244        0.80673890642327
H           -1.54403993389133       -3.28636986639823       -0.98054446941905
H           -2.80300692983594       -2.41578259140303       -0.06045780588537
H            1.19028020321356       -3.27932787152120        0.05793237789619
