25
 energy: 32.615071115963 xtb: 6.6.1 (8d0f1dd)
C            3.72794570980582        2.58692826487812        0.31659356140313
N            2.28430093608331       -0.47144036975967       -0.10914698795808
C            2.42180548670467       -1.76040109144471       -0.06627064515003
N            1.19704254280214       -2.40920124939304        0.00439964839382
C            0.26264530261118       -1.42318355569649       -0.03785688569783
C            0.94770759083963       -0.21760135761369       -0.08893718918027
C            0.23675141365856        1.02995492580472       -0.13885145107321
O            0.72863252573070        2.13115062805925       -0.18796263500708
N           -1.14821932191573        0.86870212531730       -0.06943407410016
C           -1.94408941588239        2.08447312565946       -0.03258931409744
C           -1.83870697846671       -0.31410504529672       -0.04971809710308
O           -3.05064131011517       -0.33568448415132       -0.02497400824106
N           -1.09798960176591       -1.49458721320495       -0.06296183220798
C           -1.84142202425412       -2.73198226848718       -0.09595274950009
H            4.08199973478856        2.76804323451288        1.30499856908784
H            4.36327795869251        2.59295576160476       -0.52850299002728
H            2.69687473061279        2.63701990236906        0.09448344803250
H            3.37685870520623       -2.25198431764082       -0.04760996434045
H           -1.26635012239794        2.90173573257480       -0.27860205742080
H           -2.71441764258287        2.02357559410082       -0.78924704686522
H           -2.36104525929188        2.20809900133108        0.96146770250677
H           -1.59118431300208       -3.35826476359032        0.75981592065604
H           -1.64909907454143       -3.27833985876852       -1.02126485401181
H           -2.89558086065777       -2.45221829456913       -0.05004194110624
H            1.06217593673718       -3.41027259762634        0.04829379598647
