25
 energy: -42.211609905753 gnorm: 0.006843905763 xtb: 6.6.1 (8d0f1dd)
C            3.29115515009667        0.93089303086006       -0.04505557857010
N            2.37474521987457       -0.04722263269732        0.00689056967778
C            2.59067276762792       -1.37915867728690        0.12818374657866
N            1.39586420204335       -2.05057373233078        0.12930556987835
C            0.39879674416733       -1.14438763717716        0.01414355822414
C            0.99114417310775        0.12861121868748       -0.04283103353860
C            0.19208110357528        1.26885354871873       -0.01146627750368
O            0.63581996758164        2.52069612480017        0.08892103695930
N           -1.16017408926648        1.06550101573320       -0.04951194944605
C           -2.07211420616639        2.19775679352354       -0.06507885606057
C           -1.77950247667845       -0.18873340613221       -0.07677037908559
O           -2.97502290366621       -0.29232761854267       -0.13246214750040
N           -0.94514229644234       -1.31433432839992       -0.01671998693437
C           -1.54466188969425       -2.63273261246976       -0.00851426123277
H            4.31129676681495        0.69532005457572        0.15237968565394
H            3.05560546186318        1.87780127614024       -0.48579993397979
H            1.59308877324046        2.53097919635471        0.26701239821095
H            3.54932324629347       -1.84304305127869        0.20448710298380
H           -1.49904402715934        3.11916638025971       -0.07054127948088
H           -2.70451790491650        2.13975186778425       -0.95123370878094
H           -2.71724525447022        2.16035902529689        0.81294567056730
H           -1.30821412982411       -3.15499167065116        0.91936861161674
H           -1.19537138601478       -3.21395280280441       -0.86242929327456
H           -2.62375291582524       -2.50497144313877       -0.07981532819005
H            1.30560141793777       -3.05102137822486        0.20576368112742
