  25
        -42.23005172
 C          3.5638918749        0.3336370675       -0.0504259690
 N          2.3711200316       -0.4626225691       -0.0019535191
 C          2.2925441076       -1.7978134718       -0.0030993449
 N          0.9861822274       -2.1814656581        0.0038889669
 C          0.2170964742       -1.0560989626        0.0057707074
 C          1.0849722716        0.0345017388        0.0028303981
 C          0.5873398412        1.3847681719        0.0374553373
 O          1.2070612351        2.4105442229        0.0818045835
 N         -2.9036835430        0.4977764866       -0.0352314444
 C         -3.6115345939        1.7290393039       -0.0586906551
 C         -1.6491577648        0.3628447839       -0.0052703166
 O         -0.8030824616        1.4175704054        0.0205764051
 N         -1.1277173746       -0.9344570532        0.0049082749
 C         -2.0055552480       -2.0837938114        0.0030667780
 H          4.4071818550       -0.2374976795        0.3319625914
 H          3.7740725902        0.6385669496       -1.0783743167
 H          3.4210973708        1.2371452100        0.5421261934
 H          3.1245232526       -2.4709077662       -0.0063895595
 H         -3.1580043042        2.4892467151        0.5831065873
 H         -3.6501360229        2.1169990568       -1.0799568483
 H         -4.6305074819        1.5234469095        0.2707181996
 H         -1.9348388357       -2.6197603766        0.9508192891
 H         -1.7523092647       -2.7502506307       -0.8217043807
 H         -3.0227204293       -1.7208308109       -0.1251140565
 H          0.6617244886       -3.1364337655        0.0167840444
