25
 energy: -42.093192466667 gnorm: 0.004469799244 xtb: 6.6.1 (8d0f1dd)
C            3.11059733150639        1.45766032515824        0.02778970803809
N            2.35369960428971        0.28052067272750        0.00887162250861
C            2.58512464194423       -2.31786949038970        0.03482551599680
N            1.30690053781917       -2.25753333813279        0.02623116076228
C            0.48047450586809       -1.13324570746103       -0.01190033490912
C            1.06892264570390        0.14893391129105       -0.00861180200621
C            0.14996438363473        1.33993894589495       -0.00195183943115
O            0.57611198930172        2.46797398087388       -0.02530207812647
N           -1.18728056775211        1.04098022062595        0.03889242918954
C           -2.13791950209272        2.14537727258248        0.09112021391873
C           -1.75518711679655       -0.21794680288404       -0.00672113265244
O           -2.94218104255462       -0.38680317153133       -0.01015491967008
N           -0.86479861170097       -1.30449751736129       -0.05117107805414
C           -1.46724696445807       -2.62301404182138       -0.12349444921340
H            2.88109178310269        2.06400064996295        0.91241685460602
H            4.16902103214830        1.19405065767010        0.03735050079470
H            2.90266717085873        2.08299418573719       -0.84904826249853
H            3.19219813835621       -1.41721298610040        0.00582567382155
H           -1.58528022453462        3.07154337900423        0.22574754922774
H           -2.71319587684246        2.18403681514163       -0.83413314537635
H           -2.82872341056818        1.98840115649935        0.91897128137816
H           -1.37123718329584       -3.15418052872190        0.82741332156973
H           -1.03600476738884       -3.20618416531651       -0.94028583488131
H           -2.53233213329110       -2.48124699692540       -0.32487023504156
H            0.80504515075711       -3.14843888498152        0.06336089799537
