25
 energy: 18.821574432331 xtb: 6.6.1 (8d0f1dd)
C            3.24273154406951        1.28674201814822        0.07936746241619
N            2.38789495604789        0.14249938970402       -0.03940841901366
C            2.83545464422936       -1.18956669610579       -0.04640807821668
N            1.58567935157073       -1.97454715449737       -0.03006771440584
C            0.50037897365361       -1.13236227764433       -0.02948024604125
C            0.98189627894039        0.15747317574382       -0.02257994333878
C            0.11523019607587        1.29123253240451        0.02329045809032
O            0.50281637587121        2.45530639368382        0.07727674814986
N           -1.28389097491599        0.99401261677350        0.00244475232494
C           -2.21765238893220        2.11466492181364        0.01955779132013
C           -1.80770501770847       -0.25964050543505       -0.04171495094830
O           -3.01377805769933       -0.45068269223731       -0.08292414155615
N           -0.88309141885572       -1.34579586369041       -0.04274622433636
C           -1.52993347017407       -2.63831992885825       -0.08358048513113
H            3.29447872452146        1.65916952967116        1.12710602481773
H            4.37473047984237        0.79970837666881       -0.02323802686614
H            2.81192762876936        2.09184804045672       -0.53765645826212
H            3.87264525119656       -1.60794863263281       -0.04620593136791
H           -1.61922282571640        3.02572948021413        0.05291444562316
H           -2.83588788851048        2.13069279650655       -0.88204630533980
H           -2.87961214934381        2.04949444645959        0.88556687197182
H           -1.27124048252444       -3.23296244012792        0.78887992188760
H           -1.25996771924490       -3.16988839536611       -0.99547557787268
H           -2.61312520601128       -2.46533047280958       -0.07062906307241
H            1.35340322167169       -2.96690138569719        0.03327072508810
