25
 energy: 129.200090153219 xtb: 6.6.1 (8d0f1dd)
C            2.02511591867429        1.90814730505511        0.11655428533553
N            2.07242527144983        0.50164653888168        0.06688267025072
C            5.19605411074755       -0.73608139578439       -0.18794428439501
N            1.07949127619013       -2.26898313921714       -0.02079937358476
C            0.30705051938667       -1.27378649911222       -0.01115583747300
C            0.82593605780727        0.07652913636425        0.03837278290254
C           -0.05677046260906        1.16738811032748        0.06800733450974
O            0.61551027686482        2.32137943040457        0.11520854387283
N           -1.39022194604701        1.04941024336519        0.05105983380754
C           -2.28558674299661        2.18969887722051        0.09127817233252
C           -1.95715464738055       -0.22915621103726       -0.01446610325502
O           -3.16406709599496       -0.33792487107659       -0.04322660678273
N           -1.10461434117722       -1.30825136920202       -0.04270744472758
C           -1.73073097422427       -2.62113948868105       -0.10664292347789
H            2.46959348647391        2.31862668628600        1.03728428264320
H            6.28877478932155       -0.70237411682126       -0.30587593468976
H            2.53450004180744        2.37345287142290       -0.74847525317370
H            4.76794271893294       -1.75551731741163       -0.13501686777184
H           -1.69928129824138        3.10303464662471        0.15238515528230
H           -2.90341186101221        2.19530297075041       -0.80681704618375
H           -2.94324589989656        2.10339190708960        0.95696737542210
H           -1.46785698578473       -3.21116785776549        0.77259965467520
H           -1.42250941056759       -3.14563209561296       -1.01241328807719
H           -2.80939995374832       -2.48298577024643       -0.12743228876776
H            0.68281359388999       -3.19880512105671       -0.05348792360661
