25
 energy: 159.451649147204 xtb: 6.6.1 (8d0f1dd)
C            2.41304848262082        1.68471342317118       -0.12535991302690
N            2.17493825560020        0.40574747716387       -0.02878989803230
C            4.62750920619852       -0.62961983901762       -0.13532072720984
N            1.24934713120885       -2.17860965490939       -0.01827534462059
C            0.37592671684582       -1.24462245196442        0.01294635439662
C            0.91446091411090        0.06914587458497        0.07914875795408
C            0.00020218579244        1.21638151653140        0.06608976703568
O            0.57117161714644        2.34812751173562        0.04876489251083
N           -1.33193653318200        1.00928565961771        0.06062364518132
C           -2.25226455616358        2.14263128855586        0.10890619305891
C           -1.90879714988460       -0.26176150442673       -0.00638973840328
O           -3.11189067206524       -0.38084643456843       -0.04365757158833
N           -1.03182768886108       -1.32707363331677       -0.03815669348378
C           -1.69175911837200       -2.62542419448306       -0.10840590331125
H            2.46499147757642        2.28591906776912        0.72090011494096
H            5.77611960183471       -0.57665342571267        0.37287833419091
H            2.93532596391941        2.06073220878121       -1.01917874758028
H            4.65804236602566       -1.68356423870723       -0.12662237439044
H           -1.64713149691714        3.04209181167685        0.20527014215286
H           -2.85352462640562        2.15975987397112       -0.79732113184504
H           -2.91323097107007        2.03675082459396        0.96803314284624
H           -1.52640794196117       -3.24524455062145        0.77465057380751
H           -1.47674057215071       -3.18245555873729       -1.01909077203356
H           -2.75459671076565       -2.39500722982651       -0.13880020671097
H            0.90910157673366       -3.11555976677451       -0.09023609943675
