25
 energy: 44.815907650194 xtb: 6.6.1 (8d0f1dd)
C            3.19071816333867        1.33080608184820        0.07239154464070
N            2.38036170346499        0.15783975236170       -0.01923551636160
C            2.89547129200748       -1.13647390099590       -0.13678795240781
N            1.61906573142155       -1.95278247019378       -0.06028425277273
C            0.50680591219875       -1.14702213026471       -0.02008058969482
C            0.98165855742757        0.14469404146163        0.02232190951475
C            0.11333759637312        1.27778320588449        0.07346903418014
O            0.50628634397478        2.44243130274875        0.13991985783298
N           -1.26704499563575        0.99244248153890        0.01985594998743
C           -2.21487344970452        2.11287703210126        0.04531654184828
C           -1.78902489192584       -0.25812698595884       -0.03259574502578
O           -2.99431696441239       -0.44468292658063       -0.08867148853962
N           -0.87600572738656       -1.35880068401949       -0.02850169241755
C           -1.55863158755755       -2.63455360331352       -0.08773222141810
H            3.15541865441247        1.81523917249429        1.07849102471638
H            4.50528491657847        0.71188959224484        0.22040278342848
H            2.88271798714550        2.07621112215289       -0.68591377239611
H            3.94286776707878       -1.48620168980450       -0.09538039413667
H           -1.60799505501425        3.01599566968738        0.09002320847471
H           -2.82965546933521        2.14993368836043       -0.86059491155522
H           -2.88974562037884        2.03535728224188        0.90248828772458
H           -1.31567359895896       -3.24646161147312        0.77644432575026
H           -1.30783340616544       -3.16377528104066       -1.00699375139785
H           -2.63805571589694       -2.43073141978634       -0.06238606629051
H            1.42393702608231       -2.95297138591433        0.00621839397279
