25
 energy: 4.912003550815 xtb: 6.6.1 (8d0f1dd)
C            3.26633649718535        1.23686786669614        0.06359586720775
N            2.37846170366744        0.09857005607732       -0.02140205889074
C            2.77683706230439       -1.27558966792880       -0.00294863553460
N            1.52016196179920       -1.97873502122520        0.00105146109750
C            0.46592811139022       -1.10761036272720       -0.02677738309133
C            0.97349501488060        0.17509394509614       -0.03269192511730
C            0.12592590057747        1.31106391796523       -0.00868747662706
O            0.48490455366341        2.48554334963812        0.02131394782645
N           -1.27750868678309        1.00166131962298       -0.01633511575309
C           -2.21515688685726        2.12217788587291       -0.01085210788019
C           -1.82064973156187       -0.24073728874133       -0.05069414934729
O           -3.02459020460029       -0.42323855899417       -0.06811816729966
N           -0.90718871294463       -1.32764479648773       -0.04773436525936
C           -1.50753133889809       -2.64041665240131       -0.07501585764354
H            3.47122245545769        1.48438876452234        1.12240272779002
H            4.27973423906526        0.86370833420648       -0.31840666715276
H            2.75796876601504        2.09742797724606       -0.37771820026470
H            3.77787343159852       -1.67990994493982       -0.01940577900916
H           -1.63377880881465        3.04388511610874        0.01644485637554
H           -2.83236487561951        2.11100078432558       -0.91138231940966
H           -2.87609518057048        2.06289581062156        0.85613477408953
H           -1.23230463448809       -3.21482047444385        0.80832428948007
H           -1.21356606889149       -3.17495677246047       -0.97858005791863
H           -2.59255236367741       -2.50199128050742       -0.07865841108748
H            1.30176097101483       -2.96615740492798        0.03633363060779
