25
 energy: 51.016871453088 xtb: 6.6.1 (8d0f1dd)
C            3.46886384708746        1.79816266535877        0.09388910560912
N            2.77621012238277        0.45204572450898        0.01032316408865
C            3.20577673089354       -0.82085781299028        0.07398757838568
N            2.17038745893101       -1.69610926478665        0.05474731063993
C            0.97965142943033       -0.98581625786026       -0.01286883673258
C            1.39885783388957        0.35475949956547       -0.04298455255084
C            0.40306308973805        1.37965157513837       -0.06735498866471
O            0.62430191307092        2.58459825520558       -0.07354419199821
N           -0.85189491826450        0.82799033571642       -0.06780130968381
C           -1.92582745906581        1.81163187465229       -0.05448551764165
C           -1.23126876088537       -0.55384412468621       -0.07053137202443
O           -2.42875371439544       -0.71149634895756       -0.08999849758236
N           -0.22530444500825       -1.50362030763521       -0.03926330161854
C           -3.70313048818252       -3.46927620657900       -0.09620291311450
H            4.29698862478903        1.78526884675083        0.80495481912999
H            3.93046540249931        2.21087847563138       -0.82504434021520
H            2.74212631226435        2.56508246407160        0.38836556035849
H            4.22682599113279       -1.17318767497362        0.11538828095139
H           -1.42044245329247        2.75992674388620       -0.05209823506847
H           -2.56097465538350        1.74065079120253       -0.93441306590810
H           -2.53015605326524        1.72784963178522        0.84500672299351
H           -3.89877841593647       -3.92352446790678        0.82612032765005
H           -3.81378142314094       -3.96733517179868       -1.00725667372559
H           -3.68202364621835       -2.41985448965078       -0.12132973151717
H            2.17104907507040       -2.70709227672334        0.10927366842295
