25
 energy: -5.650166708173 xtb: 6.6.1 (8d0f1dd)
C            3.25346187812209        1.20896015278986        0.09349098782017
N            2.32865677093956        0.11336802760727        0.02896953058945
C            2.62742257301971       -1.24045945782150        0.03408168775984
N            1.44107053326771       -1.93413556983237        0.00757195964131
C            0.41402679297155       -1.06631381944509       -0.01152313245697
C            0.93554506078944        0.22789734067725        0.00480979217144
C            0.12187936015276        1.37757348805464       -0.00991369034554
O            0.47842486881947        2.56106510743487       -0.00846584456132
N           -1.26624308704887        1.02392076121258       -0.03330746637724
C           -2.21542602192405        2.12386328368492       -0.04950757762958
C           -1.81140119882935       -0.22207505549762       -0.05068542727024
O           -3.01348709042449       -0.40831796923978       -0.07208138493696
N           -0.93163177574956       -1.32863902498628       -0.04184512256044
C           -1.55859681488153       -2.63474066016481       -0.06154118029158
H            3.75192221613651        1.25003952662200        1.06782670208802
H            4.02136222104625        1.13384852730377       -0.68409869744136
H            2.69314929097918        2.13740853712250       -0.04151944296821
H            3.59877678528860       -1.67660544433498        0.04532201119280
H           -1.64367880691956        3.05107100991815       -0.02522280498076
H           -2.82060842952251        2.07185252359529       -0.95426108570445
H           -2.86967465585048        2.05355243593463        0.81891730771411
H           -1.31791625496508       -3.21644576549385        0.83104034608532
H           -1.29039530044820       -3.19992179430326       -0.95690898735065
H           -2.62989212598236       -2.46520913939553       -0.07611296972300
H            1.35040151654035       -2.93494014577192        0.00213571935551
