25
 energy: 61.047751558018 xtb: 6.6.1 (8d0f1dd)
C            3.24218591405705        1.59544915237650        0.15347147203640
N            2.57576074494577        0.26571978233952        0.01098784461915
C            2.97638601517580       -1.02134470662809        0.05926327809947
N            1.90786484836393       -1.87349723218626        0.04626524429814
C            0.73378892719353       -1.14573879293411       -0.03804355189958
C            1.20665622721637        0.18297223272273       -0.07710079244987
C            0.29535376249312        1.27040667998527       -0.13360326313160
O            0.60219962422590        2.45581003670828       -0.18676602647074
N           -0.99985810224537        0.84453694385018       -0.09926710283582
C           -2.01119520565143        1.90070154175788       -0.05128845059434
C           -1.45209813327710       -0.49798198742963       -0.08669669789189
O           -2.66675068531831       -0.50074243599101       -0.08464145183302
N           -0.53436941143665       -1.56556694753841       -0.06262980382408
C           -3.02047613261804       -3.08224202732245       -0.08080950541380
H            4.09025671818327        1.55994188805396        0.83598849502693
H            3.59226887845617        2.04432347392699       -0.78856753693688
H            2.52580810722536        2.32312854292193        0.57372141167736
H            3.98083151105369       -1.39596231510216        0.14038669682220
H           -1.40850318397029        2.80715107868287       -0.03395168876436
H           -2.64977646199817        1.86050924089559       -0.93003994941330
H           -2.64137557599458        1.81422871480654        0.83724322866186
H           -2.93284114848904       -3.55546107959665        0.84932712433290
H           -2.86174506536872       -3.59958240298254       -0.97675417793114
H           -3.40174261585959       -2.09713557730320       -0.11813724238080
H            1.91783694426028       -2.89100064556011        0.10481862755438
