72
 energy: -99.309544558422 gnorm: 0.007239125466 xtb: 6.6.1 (8d0f1dd)
N           -2.05468719772000        2.86961461091488        2.37492194260816
C           -1.95114683040915        2.21265470633193        1.31745129898343
C           -3.07736046000310        1.96217050344545        0.35233054748589
C           -3.43053110014358        0.48336924881985        0.35484511007525
C           -4.26202495360016       -0.03458850456155       -0.64051093502320
C           -4.62499511331967       -1.37069693818464       -0.65697637402652
O           -5.42160424657588       -1.95113422374933       -1.57968846030154
C           -6.01180349697453       -1.15470899813987       -2.57944663440267
C           -4.14214009548692       -2.23992998325845        0.35782043959043
O           -4.53860051042391       -3.52536110595452        0.25817797675336
C           -4.17117713743687       -4.43388923255500        1.26970172789707
C           -3.32561437208655       -1.71784186741525        1.34784961603367
C           -2.97526203217293       -0.37311449939981        1.34497642376378
C           -2.54082963257564        2.38836276753739       -1.03917237188626
C           -1.54350728705573        1.40234198589017       -1.67771636301928
C           -0.20800426986342        1.39696884106620       -1.03976211594857
N            0.47300261107423        0.31245244125271       -0.68795290105854
C            1.85811115959184        0.40082980230911       -0.29056058540225
C            2.79252339117219       -0.14702285627356       -1.38334488864222
C            4.23041124505610       -0.14166398026049       -0.91510516158599
C            5.13272432419101        0.67184352131938       -1.52583521538285
C            6.53307148890067        0.86703381627700       -1.31437727532730
C            7.26491594941868        0.41897127155604       -0.27109281703801
O            8.57206981606465        0.56317762063998       -0.05661555952645
C            9.36674570094699        1.19624623058463       -1.04100213900735
C            4.30429465017968       -1.94314920696348        0.94006592124482
O            4.27903141588394       -2.85295824449156        1.85350721023353
C            5.51916038090127       -3.21936606061383        2.44696794541781
C            4.46325999629034       -1.05230973915183        0.12863321690451
C           -0.11046085382354       -1.00703752779177       -0.72386821528410
C           -4.37060271293493        2.76418040220678        0.68778903370555
C           -4.97978742043826        2.31590290567181        2.01429199757170
C           -4.15301085139814        4.27453913025709        0.70611821310940
H           -4.64223170078286        0.62185077798277       -1.40548276072020
H           -6.63876086388091       -0.36813421881917       -2.14882289944978
H           -6.63399617383976       -1.83159465162906       -3.16161345240755
H           -5.25780924080438       -0.70569997418000       -3.23450816179730
H           -4.54054484354749       -4.11458456880368        2.24871228638087
H           -4.63896263881565       -5.37812894049060        0.99809746543332
H           -3.08541172256606       -4.56769821457884        1.31438592121331
H           -2.96028232760720       -2.34894636368133        2.14149870251743
H           -2.35973352575270        0.00350579637127        2.14722046649400
H           -3.38373833308352        2.50049264607804       -1.72036125289007
H           -2.06305791877812        3.36439267738076       -0.94530474932184
H           -1.97926853013237        0.40545334363907       -1.70297216708399
H           -1.40383479253246        1.73409980887613       -2.71471541861696
H           -0.99983235660927        1.77976760759888        0.95296589903264
H            0.32018666148823        2.33732179867953       -0.98344518426558
H            2.00775814688906       -0.17680079179338        0.62652580467817
H            2.11251719801236        1.44313277181484       -0.08796394305307
H            2.68805577408083        0.46009669301300       -2.28353333581130
H            2.50017766135740       -1.17215805441325       -1.62092630497261
H            4.74128276111643        1.26001462423075       -2.34629712645988
H            7.01725476507462        1.45776044403945       -2.08012351311682
H           10.39077102299851        1.14493802234900       -0.67398560342785
H            9.07913119204497        2.24402903846183       -1.17089231283004
H            9.29294849990109        0.67491399146517       -2.00058640693753
H            5.27849045928872       -3.95299125822653        3.21339550835930
H            6.18952448470406       -3.66178193757302        1.70532075875171
H            6.00477350581242       -2.35277668017854        2.90272533484057
H            6.80080696711478       -0.13392995475810        0.53976507700716
H           -0.25418710193037       -1.35042941518080       -1.75078088878152
H           -1.07672453702460       -1.01066951106010       -0.21417178650983
H            0.55155150089150       -1.70331688823553       -0.21483214531685
H           -5.09000721318054        2.53377941317038       -0.10677017516124
H           -4.29606017280436        2.53081265288572        2.82905713947700
H           -5.19891464374676        1.25102222038897        2.00715171736186
H           -5.90745266984034        2.85444475327067        2.18880874142777
H           -3.42215436853215        4.54042102510049        1.46350411577843
H           -3.82342148346959        4.65001300978896       -0.25897351656940
H           -5.09068405900153        4.76618711811124        0.95173552225318
H           -1.21781534083366        2.99944387418851        2.93503687856529
