  25
        -42.07492254
 C          3.1668928246        1.0802923049        0.5675083580
 N          2.3321246471        0.1249404693       -0.1510168387
 C          2.5717292353       -1.2706724714       -0.1731118015
 N          1.3874054450       -1.9517126727       -0.0971360761
 C          0.3605682353       -1.0601902772       -0.0439657174
 C          0.8882598235        0.2130991131       -0.0791884115
 C          0.0711380333        1.4003055823       -0.1038495521
 O          0.4880539115        2.5291163970       -0.2050913311
 N         -1.2816705320        1.0736511080       -0.0183662394
 C         -2.2347846027        2.1778334802       -0.0034469818
 C         -1.8468249219       -0.1825213564        0.0613574447
 O         -3.0263256464       -0.3631196828        0.1475357385
 N         -0.9566417010       -1.2905010464        0.0228668477
 C         -1.5045258218       -2.6306369091        0.1098850697
 H          4.2069611134        0.8294012152        0.6562685443
 H          2.6400967762        0.5406444784       -1.0642186732
 H          2.8446810212        2.1037026028        0.4986068045
 H          3.5396808366       -1.7181715688       -0.0987667488
 H         -1.6720235027        3.1058200385        0.0563289159
 H         -2.8348356153        2.1626574297       -0.9126367471
 H         -2.8981566954        2.0756165095        0.8534524140
 H         -1.1227445364       -3.1417030689        0.9942708564
 H         -1.2706809104       -3.2022974922       -0.7883890199
 H         -2.5863590496       -2.5330227757        0.1960293405
 H          1.3148335699       -2.9583615833       -0.0856089614
