25
 energy: -42.443279038957 xtb: 6.6.1 (8d0f1dd)
C            3.28835951585167        1.27452873626486        0.09678904755477
N            2.37110453801404        0.16582319669435        0.07902985968219
C            2.68145647054259       -1.13199747445531        0.10317855000669
N            1.55506992109767       -1.88387836013963        0.10378060902054
C            0.45785677085737       -1.03974601601095        0.08159565937466
C            0.99047256642185        0.27497287007805        0.06771746464651
C            0.18538369513132        1.42821571603665       -0.00128351789038
O            0.58187418045326        2.59681467858262       -0.02920409282208
N           -1.17139046122252        1.08306932731080       -0.04197125376350
C           -2.12263804078552        2.17316750654077       -0.14658484385344
C           -1.72135883150355       -0.17055283838274       -0.04464847147960
O           -2.91527183180231       -0.32987662053325       -0.14912216695320
N           -0.86322529752593       -1.31352291598230        0.05841760939133
C           -1.52287305290244       -2.52898571457516       -0.04208387348797
H            3.91910224966204        1.23722769950879        0.98346320583400
H            3.92522726928892        1.25825528429210       -0.78691528470703
H            2.71793384085234        2.20541516474086        0.10207007586154
H            3.67921706922848       -1.51426221075655        0.13999606696519
H           -1.53788019119320        3.08917159317728       -0.13427316677017
H           -2.69583622761759        2.10390927597862       -1.07030068592367
H           -2.81244257385233        2.15124877959920        0.69432437774502
H           -0.89481802472513       -3.39332069890787       -0.20564472843472
H           -2.44642168407971       -2.42148932963266       -0.62537298696258
H           -3.30464585170094       -4.38059621360794        0.18371769466031
H            1.55043264337132       -2.89156914671132        0.12352095772368
