  25
        -42.19214652
 C          3.1862140494        1.0850721168       -0.1037108048
 N          2.3130573219        0.0799370008       -0.0458344548
 C          2.5716066508       -1.2425165789        0.0584996052
 N          1.3965890069       -1.9533538051        0.0834387026
 C          0.3721533129       -1.0897774954       -0.0036688629
 C          0.9183442820        0.2052862831       -0.0639021188
 C          0.0811261120        1.3119535425        0.0021988098
 O          0.4831588799        2.5713201227        0.1051229971
 N         -1.2585891286        1.0630367765       -0.0013954358
 C         -2.2116448099        2.1632220850        0.0293412786
 C         -1.8392238874       -0.2127406229       -0.0312430828
 O         -3.0276368414       -0.3525804533       -0.0588729338
 N         -0.9648051505       -1.3049802546       -0.0060708973
 C         -1.5148506309       -2.6466439560        0.0014808602
 H          4.2227928710        0.8779851181        0.0387127837
 H          2.9081707160        2.0386821247       -0.5008920267
 H          1.4464662230        2.6162811198        0.2507357067
 H          3.5451552094       -1.6772191936        0.1117016558
 H         -1.6729467144        3.1048135823        0.0196354262
 H         -2.8684261556        2.0941401582       -0.8374723689
 H         -2.8253883238        2.0891966227        0.9268556375
 H         -1.2367884384       -3.1677680804        0.9181571394
 H         -1.1633539019       -3.2043259228       -0.8668941494
 H         -2.5992093739       -2.5595213798       -0.0437151241
 H          1.3459269305       -2.9573279538        0.1529642669
