  25
        -42.15409992
 C          3.2488133746        1.1084470126        0.0055304517
 N          2.2541959132        0.0689563019       -0.0302996964
 C          2.4676851846       -1.2081992061       -0.3246633420
 N          1.2975030272       -1.8719337410       -0.2840349216
 C          0.3113873354       -0.9831212759        0.0540515187
 C          0.9251796142        0.2385573747        0.2303823436
 C          0.2524178388        1.5273215613        0.6069716444
 O          0.5717890899        2.5924177873        0.1009462309
 N         -1.4153282284        1.0346533796       -0.0998442937
 C         -2.0720204655        2.0169270476       -0.5801568803
 C         -1.9755769012       -0.2567122951        0.0165441942
 O         -3.1533406119       -0.4784447144        0.0094612220
 N         -1.0234791439       -1.2635352205        0.1254787319
 C         -1.4756730031       -2.6416444033        0.1998958906
 H          3.6956018841        1.1753791501        0.9990580867
 H          4.0283286665        0.8976455082       -0.7228616820
 H          2.7711607569        2.0615360528       -0.2244148495
 H          3.4178173329       -1.6463087119       -0.5582042690
 H         -1.5581116077        2.9696275871       -0.6240374747
 H         -3.0891882358        1.9197725762       -0.9367490920
 H         -0.1531461198        1.4768824352        1.6411134580
 H         -0.9534349488       -3.1646355058        1.0005012648
 H         -1.3257588071       -3.1579427507       -0.7503008193
 H         -2.5427519415       -2.6296964655        0.4175520332
 H          1.1767988499       -2.8582280836       -0.4674880803
