25
 energy: 0.000000000000 xtb: 6.6.1 (8d0f1dd)
C            3.23720163006194        1.16630919979326        0.08434469647475
N            2.29877817382611        0.07527477071623        0.03981603040599
C            2.58028210190900       -1.21425402444508        0.03006176031096
N            1.43813958087363       -1.93419271955128        0.00098261760884
C            0.39035688448383       -1.05887472636071       -0.00790371836672
C            0.93510056364412        0.21347819449412        0.01709077491437
C            0.09450143893243        1.40504303904423       -0.00410947031874
O            0.49712751527797        2.54126714362870       -0.00342325688240
N           -1.25076640035757        1.06271879480407       -0.03085478223738
C           -2.21907211982101        2.15522099834493       -0.05001256985998
C           -1.81739487048744       -0.20012725993278       -0.04692818574614
O           -2.99983886758376       -0.37846417018721       -0.07008878229737
N           -0.92618586207120       -1.30210215599479       -0.03682761578324
C           -1.46982264913417       -2.64643102187190       -0.06029820460571
H            3.71247264356769        1.21471455160235        1.06488849150277
H            4.00791497605742        1.03430808813993       -0.67357694370751
H            2.69910007168542        2.09770118228144       -0.09130154882931
H            3.56654120610678       -1.63682992603973        0.04233140067262
H           -1.67107961066214        3.09322851271934       -0.02552706933167
H           -2.82428953597071        2.09428624779827       -0.95318082946668
H           -2.87644029173232        2.07745725625962        0.81450067533302
H           -1.17061996399332       -3.19584890659852        0.83242232437030
H           -1.14560257411436       -3.17511610292205       -0.95688275822323
H           -2.55549792440841       -2.55659984320617       -0.07459039797972
H            1.38130855184625       -2.94313852034425       -0.01389874181052
25
 energy: -0.882983255631 xtb: 6.6.1 (8d0f1dd)
C            3.23929209533360        1.18455527447519        0.08600075893310
N            2.30266885614305        0.08750839675779        0.03809469276066
C            2.58043619673131       -1.25472940892619        0.03032244401250
N            1.40794565319920       -2.00177432346364       -0.00017300842358
C            0.40183015101303       -1.06650801398295       -0.00833980103870
C            0.93000444098390        0.22179335007367        0.01554563765445
C            0.10172249722321        1.40768118195778       -0.00417555127348
O            0.49369384474732        2.57602177630005       -0.00207936072905
N           -1.26042021319617        1.06626620676608       -0.03120515410328
C           -2.22977588947396        2.15803053321783       -0.05030352248166
C           -1.81599282639854       -0.18792625862943       -0.04783540128559
O           -3.01145126694176       -0.37362690480321       -0.07148367717462
N           -0.92668792501361       -1.28875934776363       -0.03708325948353
C           -1.44507010225965       -2.63249153485149       -0.05939184109406
H            3.72534275056738        1.24243101770809        1.06442144133297
H            4.01055799447693        1.06433086309363       -0.67665572644250
H            2.70587285822933        2.12116619016928       -0.08540737342012
H            3.56641541637033       -1.65387313589310        0.04422882034937
H           -1.68306164059962        3.09832952117780       -0.02600600768645
H           -2.83732276518249        2.09953563208163       -0.95328867356193
H           -2.88945517685286        2.08266613680179        0.81385728743990
H           -1.12196887227381       -3.17172009045071        0.83307280741810
H           -1.09697302070187       -3.15213174111506       -0.95414067662526
H           -2.53010436268979       -2.55827166539511       -0.07392237688396
H            1.29471597450177       -3.07947505313410       -0.01701858204601
25
 energy: 9.793843279012 xtb: 6.6.1 (8d0f1dd)
C            3.24077887150647        1.19317320280249        0.08690406389859
N            2.30526405968435        0.08972907669444        0.03561002133044
C            2.57228578322546       -1.29069550830922        0.03150845896822
N            1.37443978110413       -2.06354305401618       -0.00081992585217
C            0.41234954505733       -1.07149898054983       -0.00888786768062
C            0.92613469654305        0.22447818013289        0.01376476424303
C            0.10806259300289        1.40287893537532       -0.00389414731327
O            0.48049722206279        2.58526909592761        0.00025044804466
N           -1.27147741897573        1.07559192433471       -0.03173526387050
C           -2.24049981054222        2.16687594085211       -0.05075353674694
C           -1.81149676429282       -0.17177423665838       -0.04883194162350
O           -3.01063703275274       -0.36943940777314       -0.07343984528364
N           -0.92608912969052       -1.26595091403418       -0.03738151592884
C           -1.41237159783786       -2.61455269120082       -0.05823963710622
H            3.73687878812463        1.26476452715871        1.06209758509722
H            4.01237513267943        1.09480044396615       -0.68130787091022
H            2.70688667183688        2.13381542352799       -0.07783992843925
H            3.56440504572662       -1.65795383366268        0.04727489452751
H           -1.69764370713214        3.11017646173701       -0.02662847477890
H           -2.85070732375495        2.10734861000038       -0.95283007896414
H           -2.90262714428728        2.09044419962683        0.81239221525385
H           -1.06357921256539       -3.14168090955392        0.83419268145219
H           -1.03854354371763       -3.12376267036308       -0.95096061405121
H           -2.49748464758956       -2.56920588215861       -0.07320762929087
H            1.19501381052100       -3.21025933168459       -0.02020295882814
25
 energy: 18.466067006558 xtb: 6.6.1 (8d0f1dd)
C            3.24105543438432        1.19616752979813        0.08702821173908
N            2.30700781329624        0.09013299205259        0.03423215020561
C            2.56704993272247       -1.30298419901483        0.03279674557868
N            1.35974553298073       -2.08835693046816       -0.00078021855897
C            0.41626913455944       -1.07547101442493       -0.00927163723656
C            0.92532508766763        0.22281765452571        0.01292152704579
C            0.11082500340254        1.40133323674833       -0.00344647956149
O            0.47330615231530        2.58443296198627        0.00182641625116
N           -1.27675012438475        1.08382184916126       -0.03216837692341
C           -2.24484003309623        2.17444554145665       -0.05110797587576
C           -1.81086771122771       -0.16453118477785       -0.04954460759861
O           -3.00956427276237       -0.36960442617750       -0.07486175540310
N           -0.92617100675788       -1.25337130097678       -0.03763316981782
C           -1.39652425080714       -2.60651239016715       -0.05754049132634
H            3.74129504156174        1.27086144619921        1.06016691189060
H            4.01104602119856        1.10837727915616       -0.68447856783949
H            2.70432673600276        2.13743908219239       -0.07326346476888
H            3.56620133676664       -1.65140834214659        0.04917722550884
H           -1.70475818326024        3.11905474438838       -0.02703791988412
H           -2.85580763585521        2.11310612991048       -0.95280682715541
H           -2.90754569271946        2.09623569349795        0.81171821798475
H           -1.03575746834118       -3.12476055883305        0.83576175595846
H           -1.01053242856000       -3.10801943866496       -0.94986622402152
H           -2.48141211077431       -2.58030452785608       -0.07283307817575
H            1.14929235962433       -3.28387322539363       -0.02195447186844
25
 energy: 23.996721223542 xtb: 6.6.1 (8d0f1dd)
C            3.24187173218273        1.19916172735848        0.08714373327099
N            2.30874490032765        0.09290371792409        0.03362317980434
C            2.56652016915952       -1.30209453389746        0.03412279774664
N            1.35748636129952       -2.09298373108201       -0.00043962132783
C            0.41813953969249       -1.07813375766348       -0.00953234966155
C            0.92594315974554        0.22134363956132        0.01240748687174
C            0.11197017928409        1.40185080361098       -0.00343176592724
O            0.47032561340483        2.58305026504577        0.00244733224894
N           -1.27794467983106        1.08765221350524       -0.03247647332400
C           -2.24582965010035        2.17704994459025       -0.05123878357577
C           -1.81118675766978       -0.16318275409557       -0.04978682646339
O           -3.00894908921451       -0.37093828752598       -0.07525637416655
N           -0.92605983404297       -1.24858225567878       -0.03777449256203
C           -1.39390970363336       -2.60376524090970       -0.05731323989825
H            3.74304079574574        1.27267198298247        1.05950314231617
H            4.01052468344456        1.11311092408415       -0.68538007456502
H            2.70428060206606        2.14036813305917       -0.07178628960732
H            3.56950026831736       -1.64114006916946        0.04965021977862
H           -1.70707064745542        3.12205250576368       -0.02722902797509
H           -2.85686476314831        2.11483560229265       -0.95289099862634
H           -2.90837040904802        2.09802366944795        0.81173092913883
H           -1.03155674807253       -3.11875275314490        0.83641487211229
H           -1.00622419618159       -3.10241168940070       -0.94973416951497
H           -2.47799216544507       -2.58311912434287       -0.07270016422347
H            1.13582530710907       -3.32994233014327       -0.02303914572247
25
 energy: 32.327298336113 xtb: 6.6.1 (8d0f1dd)
C            3.24361009139575        1.20365154477229        0.08723853224762
N            2.31072492227302        0.09888208152177        0.03307603582553
C            2.56761586526348       -1.29392930092258        0.03695623293725
N            1.35974694518426       -2.08670750431085        0.00064953704822
C            0.41945006010770       -1.07920695272542       -0.00982903324560
C            0.92688972238757        0.22138939202207        0.01191415145449
C            0.11236468815226        1.40487111552385       -0.00354364929297
O            0.46791839440023        2.58314783814331        0.00288511390113
N           -1.27785636873563        1.09116665349855       -0.03281308090144
C           -2.24640935387249        2.17825094295628       -0.05131577211873
C           -1.81203838328448       -0.16322274565822       -0.04981668069998
O           -3.00851310552767       -0.37151436496038       -0.07516065468680
N           -0.92572378612221       -1.24426380126792       -0.03792350674827
C           -1.39455430564064       -2.60196039368432       -0.05726346094694
H            3.74435118264374        1.27446762439707        1.05943090322257
H            4.01117533093637        1.11563106676219       -0.68543387738135
H            2.70672156154456        2.14488608116347       -0.07162898953614
H            3.57309146919845       -1.62677606798800        0.04866184492729
H           -1.70940404879516        3.12393312221927       -0.02732973279213
H           -2.85742531239354        2.11534329495106       -0.95296651340921
H           -2.90866662363439        2.09852391683681        0.81188389439573
H           -1.03259209335020       -3.11515073194359        0.83656501750968
H           -1.00716800898347       -3.09898867118725       -0.94971728271685
H           -2.47797463533645       -2.58302460762365       -0.07270207614142
H            1.12688046012513       -3.40037093032381       -0.02478305670437
25
 energy: 39.054271359045 xtb: 6.6.1 (8d0f1dd)
C            3.24589638138576        1.21107434572213        0.08677294772268
N            2.31288076874770        0.10807720478735        0.03287045485370
C            2.56756516785636       -1.28382823023874        0.04319342961696
N            1.36147188890780       -2.08006905894329        0.00464575916184
C            0.42294245524865       -1.07864203671627       -0.00941475124625
C            0.92767858703133        0.22478884943120        0.01211527498126
C            0.11312326242702        1.40980759597114       -0.00314898052473
O            0.46340737668436        2.58601731775639        0.00294363532736
N           -1.27823738564227        1.09645196904987       -0.03303745565683
C           -2.24800156412452        2.18031710120789       -0.05144290448789
C           -1.81138289800365       -0.16203458866429       -0.04985095893199
O           -3.00662131246213       -0.37166012094926       -0.07524050961429
N           -0.92408195836856       -1.23678993178701       -0.03818864310332
C           -1.39225207336910       -2.59786742312219       -0.05721765432493
H            3.74616350112001        1.27927713291003        1.05889356572216
H            4.01248936014576        1.12099766413421       -0.68604791178081
H            2.71016368300931        2.15285383760750       -0.07193953931260
H            3.57646805845874       -1.60784773315726        0.04668280409521
H           -1.71360926985705        3.12723309404798       -0.02743392819527
H           -2.85897883954037        2.11604526279861       -0.95312754288367
H           -2.91008846239267        2.09920242105239        0.81190971738476
H           -1.02910750996737       -3.10883070656932        0.83636349140952
H           -1.00319998464536       -3.09312705329443       -0.94907305301102
H           -2.47513807023715       -2.58262209282251       -0.07290120633181
H            1.10266350552360       -3.51979621804015       -0.03129214472276
25
 energy: 33.535970614990 xtb: 6.6.1 (8d0f1dd)
C            3.25194357738035        1.22814450326555        0.08634086716319
N            2.31792655160392        0.13169220292502        0.03203563087716
C            2.56060121705476       -1.25082233643241        0.05211672376289
N            1.36853997793986       -2.05019355390220        0.01363716326956
C            0.43434915691074       -1.07099932000718       -0.00928490840564
C            0.93157098032083        0.23856040260739        0.01160660978739
C            0.11570397430450        1.42531634655576       -0.00243971833520
O            0.45007864267452        2.59167502011093        0.00303307557953
N           -1.27728796481027        1.11157158152801       -0.03354179662321
C           -2.25074894346387        2.18536394780283       -0.05171640126683
C           -1.80750032938502       -0.16146008405120       -0.04983429617182
O           -2.99896078985075       -0.37349654292446       -0.07537919650783
N           -0.91761563452905       -1.21681680067638       -0.03855843566437
C           -1.38535104422265       -2.58860895865999       -0.05678806048908
H            3.74924093856414        1.28665141159588        1.05810357682906
H            4.01402609858771        1.13145820516283       -0.68726088943450
H            2.71595406138059        2.16922872941206       -0.07144139751146
H            3.57756351377048       -1.56170452847319        0.04433209551896
H           -1.72180211205165        3.13411601869238       -0.02773373198326
H           -2.86139901411376        2.11681652160785       -0.95347516880886
H           -2.91225681675997        2.10004989867179        0.81198161614348
H           -1.01843716106228       -3.09548448890180        0.83400897206002
H           -0.99213955620276       -3.08055940625352       -0.94551101467991
H           -2.46669171645635       -2.58509228134244       -0.07278961368897
H            1.03490706035217       -3.82637788614153       -0.04440780527301
25
 energy: 28.293065145875 xtb: 6.6.1 (8d0f1dd)
C            3.25439859177384        1.24165813670681        0.08721275112562
N            2.31567076963547        0.14910171204476        0.03369240095226
C            2.54459785894586       -1.21512286053119        0.05059532408715
N            1.38562587904565       -2.01257720076792        0.01591849770295
C            0.44580291253360       -1.05603088081176       -0.00819020578381
C            0.93524978727168        0.25782278638322        0.01064989872312
C            0.11382351969960        1.44613062517502       -0.00363738345965
O            0.43893640000212        2.60291482288261        0.00400213745011
N           -1.27223131084518        1.12544760262633       -0.03420834940718
C           -2.25243143471002        2.18958033091118       -0.05200271404525
C           -1.80046088564157       -0.16304564687532       -0.04964783176199
O           -2.98958211642093       -0.37136622918741       -0.07510845752901
N           -0.90728597089628       -1.20202843714657       -0.03735728141320
C           -1.37798039248387       -2.58102856182149       -0.05608018662261
H            3.75067500285063        1.29310213397919        1.05779816730119
H            4.01359845541536        1.13862367245580       -0.68683854115707
H            2.72256108506521        2.18478021507611       -0.07070909846190
H            3.56774619076429       -1.52314961476322        0.04494740105312
H           -1.73051625869847        3.14162114673009       -0.02823695835721
H           -2.86303531954365        2.11630855938203       -0.95347915824497
H           -2.91359137732058        2.09963345614049        0.81161435843613
H           -1.00640262857877       -3.08647373110697        0.83073248820507
H           -0.98031676508491       -3.07153824038561       -0.94080497943266
H           -2.45885186400251       -2.58443883954855       -0.07234204430997
H            0.97621453915965       -4.13089635537560       -0.05148633890300
25
 energy: 20.525351276995 xtb: 6.6.1 (8d0f1dd)
C            3.25427256644645        1.24878920995620        0.08743268029381
N            2.30592188227510        0.15994116993658        0.03903605889154
C            2.52960830094863       -1.16482151997059        0.03775283033175
N            1.43329490638409       -1.91654023155851        0.01197156008578
C            0.45066377906971       -1.00748512185753       -0.00656222479034
C            0.93763452121516        0.29904522594950        0.01113130064677
C            0.10037558103813        1.47241873658272       -0.00501181205817
O            0.43876010412120        2.63048226011101        0.00451097031015
N           -1.26303049575011        1.12552166390997       -0.03381051519598
C           -2.25201723580215        2.18656740959870       -0.05180390071122
C           -1.79351957226097       -0.17163288550765       -0.04927923421277
O           -2.98573217569955       -0.36132648119709       -0.07426271571917
N           -0.89513541529375       -1.20547559112025       -0.03536471295579
C           -1.37234624633112       -2.58372576535079       -0.05599175805512
H            3.74778639291862        1.29501144774478        1.05909950009333
H            4.01416210048251        1.13409627636885       -0.68528556124838
H            2.72661863920078        2.19230587022154       -0.07310703411683
H            3.54254433636870       -1.52517133021586        0.05071163072406
H           -1.73139083075085        3.14029573185175       -0.02802547361139
H           -2.86214076574647        2.11293691034491       -0.95312064078819
H           -2.91283822662145        2.09590928172187        0.81138760018154
H           -1.00420612761810       -3.09676129250493        0.82909783121603
H           -0.97905643700291       -3.08043104103361       -0.93989550824296
H           -2.45607109086338       -2.57557026171279       -0.07195776688580
H            0.93805617720794       -4.41535107009674       -0.05161920803540
25
 energy: 19.906473661452 xtb: 6.6.1 (8d0f1dd)
C            3.26038254033670        1.27244657504606        0.08625122547279
N            2.30755976933533        0.18918737848694        0.04042736655869
C            2.53771147460964       -1.12817461796274        0.03611918496635
N            1.46376480223622       -1.86407236607669        0.00855820024380
C            0.44956194790405       -0.97327260914576       -0.00602135374655
C            0.93790587731225        0.32991676367564        0.01346433858213
C            0.08839854394500        1.48702471511489       -0.00284432988681
O            0.43577330928410        2.65125680543997        0.00363113167354
N           -1.26004791045338        1.12325624585239       -0.03239493921257
C           -2.25317437957006        2.18447575179884       -0.05146513058236
C           -1.78802363944153       -0.17408327836615       -0.04851283009726
O           -2.98372524545404       -0.35267860197876       -0.07381155627345
N           -0.89162169153161       -1.21132689886118       -0.03520827489232
C           -1.37076267849527       -2.58409233875669       -0.05681670671473
H            3.74978627980513        1.30875762494019        1.06134792857435
H            4.02084484776598        1.13981502184853       -0.68382808681449
H            2.73683045377877        2.21510179481900       -0.07812321840603
H            3.54030963162369       -1.52122867347000        0.05293000450810
H           -1.73051177491468        3.13808381426729       -0.02731303159230
H           -2.86148378603589        2.11018354407132       -0.95342094916120
H           -2.91266235328705        2.09277783984750        0.81198909287080
H           -1.01218702806039       -3.10565462334368        0.82908660024347
H           -0.98727082471615       -3.08787627029898       -0.94275794330437
H           -2.45628700938946       -2.56152860020689       -0.07226095957315
H            0.89114351134883       -4.68926639456903       -0.05199186728915
25
 energy: 19.727035575714 xtb: 6.6.1 (8d0f1dd)
C            3.26440872922817        1.28743306401307        0.08769173773245
N            2.30964105934972        0.21145849858334        0.04069346570340
C            2.54904745529289       -1.11174267395189        0.03494220435652
N            1.46588004775081       -1.85245210624894        0.00695609531272
C            0.44761839661371       -0.96026513726493       -0.00594551140592
C            0.93770818175203        0.34128661433952        0.01499214705718
C            0.08410899424904        1.49246348706715       -0.00325763467277
O            0.43516132119197        2.65875725141739        0.00150654888373
N           -1.26059223916305        1.12356021838835       -0.03229315470605
C           -2.25510191896804        2.18497055756802       -0.05147650419193
C           -1.78472081927809       -0.17079125599321       -0.04836937338757
O           -2.98172336253569       -0.35002495652723       -0.07315127520210
N           -0.88948121341205       -1.21380705213225       -0.03553864275228
C           -1.36785572690028       -2.58253848558984       -0.05664286021239
H            3.75240835661664        1.31688603116602        1.06415447244186
H            4.02382683489516        1.14423603692343       -0.68175661769019
H            2.74287596680486        2.22904296597184       -0.07808742249365
H            3.54426707765223       -1.51500681201511        0.04861598809718
H           -1.73028842776371        3.13755125022877       -0.02761553387273
H           -2.86225990719578        2.10973761580969       -0.95365363741992
H           -2.91354111939730        2.09264288026072        0.81224029197703
H           -1.01338420200130       -3.10866828503325        0.82933306682730
H           -0.98873225757893       -3.09096185906146       -0.94287409490116
H           -2.45510477386106       -2.55687959056769       -0.07192938458579
H            0.85804821459428       -4.82785965517952       -0.05150047474764
25
 energy: 19.684380677533 xtb: 6.6.1 (8d0f1dd)
C            3.26428453640676        1.28662098356600        0.08705419338967
N            2.30765695500955        0.21417282655869        0.04080421511005
C            2.55043842149992       -1.10905843449997        0.03499954412123
N            1.46464796398515       -1.84773728438984        0.00629184417517
C            0.44692152603703       -0.95653410712522       -0.00567125477066
C            0.93739311436259        0.34332101369300        0.01621862268147
C            0.08294939972377        1.49413289057638       -0.00255903024936
O            0.43551259354718        2.65981917456007        0.00187355461543
N           -1.26116975307807        1.12353803120263       -0.03186079056515
C           -2.25609718335103        2.18516747764391       -0.05138636549598
C           -1.78396206940856       -0.16889933478747       -0.04834955423819
O           -2.98076667713071       -0.35117804003032       -0.07349471112307
N           -0.88760749141290       -1.21508549512684       -0.03575231363791
C           -1.36597098288334       -2.58182080450049       -0.05692345308301
H            3.75250141722049        1.31600255072701        1.06321485617053
H            4.02337637406302        1.14233246530836       -0.68234778380796
H            2.74378863440683        2.22849807701297       -0.07886671582738
H            3.54159055121061       -1.51874932963845        0.05010132867783
H           -1.73066872690463        3.13735427449659       -0.02733070223513
H           -2.86270652256041        2.10971698167230       -0.95371898448034
H           -2.91441597013492        2.09244439926770        0.81215321613613
H           -1.01174140514762       -3.10884310920340        0.82885298724131
H           -0.98695781977012       -3.09103868822605       -0.94300433322279
H           -2.45377871593347       -2.55642741756984       -0.07225106294703
H            0.85699649817906       -4.83872049901577       -0.05101341048761
25
 energy: 19.670747261189 xtb: 6.6.1 (8d0f1dd)
C            3.26380612768688        1.28617929128205        0.08757963910924
N            2.30612500730053        0.21529313199256        0.04081465310265
C            2.55174843499849       -1.10812335219394        0.03417878265952
N            1.46322247750961       -1.84639183785133        0.00557653037291
C            0.44645329102842       -0.95576319541475       -0.00574996994735
C            0.93737128534703        0.34344912899826        0.01653452284321
C            0.08280458750289        1.49438520279094       -0.00310516237768
O            0.43550532898179        2.65979345540467        0.00122453166230
N           -1.26149510040409        1.12268892030319       -0.03202871685498
C           -2.25606879594302        2.18511790328221       -0.05147265881128
C           -1.78367917221356       -0.16738410769308       -0.04842188121416
O           -2.98020000512362       -0.35268718904882       -0.07328307967448
N           -0.88672800986292       -1.21663463350240       -0.03598230249551
C           -1.36644501746833       -2.58140835802643       -0.05668887900959
H            3.75227413467366        1.31618517087053        1.06360792840184
H            4.02325678015838        1.14289732606775       -0.68155484255621
H            2.74454265585089        2.22904984218808       -0.07806061101466
H            3.54050428228374       -1.52124661993557        0.04897515292104
H           -1.72997730765622        3.13693254837257       -0.02759609727366
H           -2.86266813174674        2.10976270808767       -0.95369569871301
H           -2.91401901129283        2.09260729571500        0.81222619603238
H           -1.01305921585172       -3.10919992764322        0.82908406227489
H           -0.98853446090193       -3.09171598759180       -0.94269883827025
H           -2.45432645261515       -2.55534403503657       -0.07187978371030
H            0.86180095569400       -4.83941407924556       -0.05054958130957
25
 energy: 19.667193592918 xtb: 6.6.1 (8d0f1dd)
C            3.26381687060434        1.28549998553321        0.08712036381053
N            2.30561283479202        0.21502198467419        0.04085974398330
C            2.55147834256211       -1.10843370761597        0.03464614720601
N            1.46202244647670       -1.84622937604323        0.00561109783090
C            0.44592408853418       -0.95562427255032       -0.00559654717387
C            0.93732716342214        0.34361333050618        0.01692435503052
C            0.08298577742769        1.49461703661193       -0.00259072594236
O            0.43521296290693        2.66008000572232        0.00171147261558
N           -1.26173291244232        1.12255983905295       -0.03178785425471
C           -2.25626259308002        2.18527167956731       -0.05139482765397
C           -1.78406753588608       -0.16631776252126       -0.04837863669965
O           -2.98043663478581       -0.35279094667364       -0.07345832215683
N           -0.88702680826691       -1.21667152131220       -0.03607315412929
C           -1.36642633571035       -2.58131945800945       -0.05696821251724
H            3.75240458212085        1.31586193887578        1.06315764135235
H            4.02318245065547        1.14186987263298       -0.68212755939578
H            2.74492428633805        2.22873244463103       -0.07886837115871
H            3.53980824011701       -1.52232760785368        0.04957853095914
H           -1.73029327478117        3.13716488948359       -0.02733949817261
H           -2.86268698441214        2.10994046556851       -0.95373720400135
H           -2.91439999835619        2.09268342463864        0.81215976576261
H           -1.01288076119609       -3.10931749069098        0.82875966989927
H           -0.98814335004417       -3.09160505420961       -0.94301518935658
H           -2.45432702340833       -2.55583895812478       -0.07226960829333
H            0.86619883434828       -4.83741213972151       -0.04988918139669
25
 energy: 19.660383876398 xtb: 6.6.1 (8d0f1dd)
C            3.26365348028642        1.28516941494062        0.08769584530909
N            2.30553813035175        0.21417979551398        0.04080740346708
C            2.55053825906821       -1.10936842720306        0.03412442382234
N            1.46034701281095       -1.84641149651152        0.00502444583133
C            0.44520871510962       -0.95559557028758       -0.00586968167027
C            0.93737059278541        0.34384633287924        0.01653268434843
C            0.08357032603673        1.49462713341283       -0.00313643994491
O            0.43480190507056        2.66033027736947        0.00113724123919
N           -1.26180385617378        1.12230097359967       -0.03209791464729
C           -2.25610331385168        2.18534036609305       -0.05149912876527
C           -1.78468417355124       -0.16538696803712       -0.04843859678126
O           -2.98088833039673       -0.35290699648255       -0.07319825071100
N           -0.88779115056320       -1.21625680555049       -0.03616827012131
C           -1.36674851495158       -2.58112342601446       -0.05663744621692
H            3.75201730921259        1.31543595614681        1.06391389720145
H            4.02314018851412        1.14220724343929       -0.68158110603901
H            2.74443971768524        2.22843216694553       -0.07797806161222
H            3.53921985341198       -1.52296676148232        0.04864084709811
H           -1.73004899907134        3.13717386056008       -0.02762667205825
H           -2.86274799095959        2.10995123720063       -0.95371920207557
H           -2.91403842855349        2.09280990472899        0.81225763180767
H           -1.01294759000276       -3.10891254345083        0.82921431240496
H           -0.98853335350117       -3.09156052917508       -0.94267535724591
H           -2.45450218096991       -2.55566509472947       -0.07177467029588
H            0.87320706013907       -4.83662144173368       -0.04991403819727
25
 energy: 19.660313017730 xtb: 6.6.1 (8d0f1dd)
C            3.26387569219625        1.28536060586451        0.08701597506984
N            2.30598591409101        0.21396400941635        0.04091927338900
C            2.55002658218911       -1.10969634688799        0.03475690925072
N            1.45994267151234       -1.84638115819066        0.00565833322680
C            0.44508589151026       -0.95524308136934       -0.00556699667677
C            0.93738479461679        0.34411905116458        0.01689226727844
C            0.08355910983366        1.49469429388554       -0.00242437928083
O            0.43462979163700        2.66048352222123        0.00187728387592
N           -1.26181648017146        1.12250371470953       -0.03177505602553
C           -2.25618136997001        2.18539063276312       -0.05137452715430
C           -1.78477233423654       -0.16570699094328       -0.04836907183728
O           -2.98101734466010       -0.35271239828028       -0.07349284298297
N           -0.88796769991884       -1.21585477105094       -0.03608757517126
C           -1.36667861885715       -2.58113827406808       -0.05706594910196
H            3.75244806980560        1.31594215762214        1.06304381041923
H            4.02319619033979        1.14190200145739       -0.68230305834714
H            2.74454091595602        2.22835650689693       -0.07903803610527
H            3.53924067913301       -1.52244722410872        0.04951142294047
H           -1.73026938680122        3.13728293330483       -0.02728311476555
H           -2.86259849665485        2.11002055560698       -0.95375011541314
H           -2.91439402168318        2.09275676506255        0.81216316944850
H           -1.01305585074662       -3.10903071424996        0.82865488332033
H           -0.98820272551724       -3.09121659256885       -0.94312625144699
H           -2.45446510531134       -2.55580845891914       -0.07242775578808
H            0.87371779964389       -4.83851213716643       -0.04937470197489
