72
 energy: -99.272458554409 gnorm: 0.007403692979 xtb: 6.6.1 (8d0f1dd)
N           -1.90929047016377        3.07196393650810        2.16024287511180
C           -1.81677585494414        2.29161449020989        1.18664348110613
C           -2.96148725682382        1.91444084870740        0.28604559768158
C           -3.27329289130416        0.43221841939507        0.43962025506159
C           -4.16872456508968       -0.16839444410487       -0.45072029330755
C           -4.51170796616552       -1.50682040718766       -0.32540347074995
O           -5.37703836362535       -2.20030991412830       -1.11806445884243
C           -5.98858365975016       -1.52762616927826       -2.19681594959786
C           -3.89721299054820       -2.19814040174427        0.72314656319903
O           -4.20784694157692       -3.64743301171457        0.88043069492721
C           -5.55799556333110       -3.92379593240966        1.32087291681382
C           -3.00766256976582       -1.67899175946136        1.61938222589147
C           -2.70371881386854       -0.32914277585747        1.45592914708748
C           -2.47716777446683        2.21355501374601       -1.15738330911768
C           -1.47834763805735        1.19192985529076       -1.73337693418502
C           -0.13461403428889        1.24841520826813       -1.11366922410615
N            0.56288320503617        0.19143835873996       -0.69254847059248
C            1.94709135516342        0.32930473577364       -0.31052187670637
C            2.89978515968819       -0.12985789288916       -1.43142948297402
C            4.32614286704741        0.00267378332918       -0.97746775647059
C            5.02029286047813        1.18597295103557       -1.15666245468249
C            6.32678353723212        1.31659642231832       -0.70923486540081
C            6.96239598667190        0.26429773363517       -0.06876110274916
O            8.22672791969386        0.27933739611087        0.40399979716345
C            9.00311526325323        1.44230888656596        0.23677411691011
C            6.25707301203494       -0.95286406455784        0.12268823185371
O            6.95123091523044       -1.92823792005347        0.75161957027104
C            6.34105180403152       -3.17881570013459        0.95499706330618
C            4.95303086424535       -1.06033349962675       -0.32997392703736
C            0.00483509833733       -1.13850249046562       -0.68365869311439
C           -4.26687824877317        2.71111265551594        0.57968131519057
C           -4.81251127113116        2.39714109799848        1.97118086297663
C           -4.09953518819112        4.22009001626640        0.42174655315454
H           -4.61111953753044        0.41856187236977       -1.23817809779403
H           -6.61534431924796       -0.70302190104663       -1.84638730003824
H           -6.61070053970440       -2.27184063773985       -2.69017300603362
H           -5.24449176436437       -1.15158954895069       -2.90407854553320
H           -5.80514697229566       -3.35522016141124        2.21838116874739
H           -6.22677809962010       -3.64309989185192        0.50733952067870
H           -5.63944564300161       -4.99208158266829        1.51084632873067
H           -3.57824060317030       -3.94561154678519        1.56766120648184
H           -2.02872257743268        0.14092081204530        2.15702271582619
H           -3.34335205682019        2.24357126670866       -1.81867999644236
H           -2.01855817720996        3.20310052340844       -1.17253727561125
H           -1.90256818551046        0.19167169203913       -1.66805335634688
H           -1.36311350012352        1.43876402889309       -2.79734545478701
H           -0.86700688828907        1.83651943307270        0.84956556144190
H            0.38565207479808        2.19371067244332       -1.12802988374241
H            2.13097717900421       -0.26705194381574        0.58761346533560
H            2.15636400162652        1.37423840896280       -0.07386106854698
H            2.72705356808279        0.48775235935673       -2.31434801757443
H            2.68392723952874       -1.16777660213083       -1.68882977590817
H            4.55076161763161        2.01783060531567       -1.65951538589978
H            6.84402198401713        2.24812304824427       -0.87026159642364
H            8.55894173945055        2.29927283651006        0.75275936194917
H            9.14050367506615        1.68406432423466       -0.82165123078999
H            9.96937721920868        1.21465610853600        0.68283751895517
H            7.09111973498326       -3.79310334145058        1.44950069162522
H            5.45994134460566       -3.09665961726718        1.60027753559434
H            6.05805553765532       -3.64769818128715        0.00698852597390
H            4.41000705467510       -1.98298489382658       -0.19545040854865
H           -0.20161472922887       -1.48963754785129       -1.69740397527113
H           -0.92269579833945       -1.15794377696209       -0.10452574896934
H            0.71339927278098       -1.81908964770397       -0.21902332726672
H           -5.00808726783695        2.37619138934836       -0.15589726599400
H           -4.12072821888333        2.75143039523999        2.72801048899324
H           -4.96112661985836        1.32778420757854        2.10322110062374
H           -5.76797886956633        2.89648305223841        2.11024674966163
H           -3.34252063699852        4.58816787638515        1.10671628926663
H           -3.82880807283820        4.49402055544269       -0.59456670922227
H           -5.04084222809554        4.70922352040496        0.65910313720414
H           -1.05664412645280        3.27734593065701        2.67266190416605
