25
 energy: -42.186430383759 gnorm: 0.004492767116 xtb: 6.6.1 (8d0f1dd)
C            3.25264728327164        1.23456079494613       -0.00321357301615
N            2.19944015236374        0.31354753714214        0.16065758849389
C            3.47270564118313       -0.24238967209124       -0.06248920653529
N            1.18596422540521       -2.18017525450367       -0.03891100316461
C            0.36167622506330       -1.20535667786076       -0.00347435076698
C            0.90145813966625        0.13329735921525        0.07415106070288
C            0.03647465808263        1.30689319891473        0.10937354910211
O            0.47498681749965        2.44115101292587        0.15581166798896
N           -1.31970344579927        1.03459908046525        0.08305871780740
C           -2.25015010918592        2.14591112478715        0.12310986151914
C           -1.88363136830176       -0.22834727232648        0.00852526267660
O           -3.08186465882600       -0.37150725547690       -0.01608588704728
N           -1.01880555306341       -1.31279427473470       -0.03984221627227
C           -1.61777055293234       -2.63121486764870       -0.13135475627499
H            3.56950529137325        1.77706538128115        0.88239981669843
H            3.63624096174410       -0.75656886925191       -0.99982186378517
H            3.24978773195687        1.84240105512501       -0.90259557161940
H            3.93318080390303       -0.73483042828105        0.78760052689249
H           -1.68093993308722        3.06552831234409        0.25178755537464
H           -2.82540104878296        2.18739822309576       -0.80449702888374
H           -2.95221539826958        2.01162689995526        0.94816251496125
H           -1.35764142803781       -3.23083176310052        0.74369792883692
H           -1.28366281948082       -3.13861345898837       -1.03879597249064
H           -2.70032630956201       -2.51001016463938       -0.16888445196923
H            0.85847620791631       -3.13310147969420       -0.08719855132846
