72
 energy: -99.348116532026 gnorm: 0.001202228914 xtb: 6.6.1 (8d0f1dd)
N           -1.51742148005883        2.29844815330638        3.19836774506560
C           -2.08321163231235        1.96326891898998        2.18768036381351
C           -2.50402605507759        1.50611897090612        1.02545330019387
C           -3.29883461157385        0.28869430736332        0.94497230971665
C           -4.06179106648903       -0.01070082919060       -0.19135696562066
C           -4.79855698173319       -1.17831842012665       -0.27086910496999
O           -5.57288454882607       -1.53957851133223       -1.31871269405956
C           -5.66523556893094       -0.68467362790620       -2.43230004024820
C           -4.77783300347570       -2.10158029695793        0.81038221538762
O           -5.51146046336166       -3.21703086100048        0.63320242049886
C           -5.53655798516203       -4.19158026602329        1.65038016377242
C           -4.02604840830464       -1.79387679019461        1.93777232744489
C           -3.30333662054204       -0.61780734572377        2.00689664012107
C           -2.07091502610039        2.24331617083033       -0.22309088924261
C           -1.11994313473851        1.37261200458372       -1.05194304908322
C            0.18897234672351        1.13018676321201       -0.29688586254596
N            1.03941265255523        0.15198914188999       -0.94177808873313
C            2.44369969671495        0.25185390293425       -0.60173613664567
C            3.35353931159178       -0.19377601362675       -1.76057807177262
C            4.78757550749200       -0.10202570368493       -1.33030484623258
C            5.55032566252630        1.02387341178384       -1.60304647760847
C            6.85541335545384        1.12658186320954       -1.14798412916329
C            7.42668187606110        0.10475611872582       -0.40158640276726
O            8.67523273409603        0.10230616073777        0.10234474273094
C            9.50563275517422        1.21966505251220       -0.11249423811615
C            6.65588272185456       -1.05867513508135       -0.12251098034036
O            7.28640246440268       -2.00570981706465        0.60058664382020
C            6.60835009213487       -3.19964679674495        0.91073029213051
C            5.35351455435674       -1.13747237935329       -0.59023773840852
C            0.53098701512078       -1.19688709630125       -0.85004085374036
C           -6.42335389020228        3.21923587962452        0.02920108373964
C           -6.28326146005106        2.33408936238707        1.19047957470854
C           -5.57963381960037        4.39734471590874       -0.20132478837521
H           -4.08879942623808        0.68733142117761       -1.01111654829810
H           -6.08730285816059        0.28823201196347       -2.15914328310226
H           -6.33595057884878       -1.18433427581789       -3.12847530264309
H           -4.69168929561874       -0.53893517544070       -2.91125553002041
H           -5.94738392022495       -3.79000105734121        2.58154837661421
H           -6.18671074592235       -4.98211791816153        1.28090264764594
H           -4.53891747806630       -4.60033575167149        1.83760758119956
H           -3.99433134844157       -2.47652331058422        2.77109467927722
H           -2.71622975920616       -0.40644361486010        2.88754490025866
H           -2.94531283831649        2.50694858614878       -0.82100395507380
H           -1.56696012696746        3.16958537723785        0.05883567172892
H           -1.61016325155534        0.42338477436993       -1.26364349843763
H           -0.90276254689980        1.86321616302368       -2.00132175426731
H           -0.04857664975366        0.81879344416125        0.73500849825737
H            0.73333931718830        2.07574635023717       -0.24163127453527
H            2.68006479029030       -0.34914950279745        0.29040649682845
H            2.68039769848160        1.29245938428265       -0.37163278896526
H            3.16720360631032        0.45107770082808       -2.61911143432211
H            3.11821981860641       -1.21942342839239       -2.04539864371407
H            5.12791350927023        1.83127518729673       -2.18103107405586
H            7.42398939336444        2.01225681555813       -1.38017724457101
H            9.07099230232240        2.12903461385289        0.31374464824927
H            9.70257921790071        1.37340422506908       -1.17767433048394
H           10.43938083643612        0.99206574852066        0.39816121732638
H            7.31668669671409       -3.79883881585082        1.47972802952123
H            5.72127071705950       -3.00975026375070        1.52338711153880
H            6.31873476660678       -3.74313714591773        0.00612018829280
H            4.76022398398146       -2.01509331431288       -0.38631701004961
H           -0.41283035471106       -1.28052486510625       -1.38413609655398
H            0.36673202428680       -1.50118418095347        0.19435788408737
H            1.23529987947376       -1.88684487699328       -1.30610059689610
H           -7.23696559360997        3.03521334108113       -0.65453952857223
H           -5.41969323946682        2.59588313475890        1.79695523611022
H           -6.19416483569500        1.28858565744504        0.88060925663354
H           -7.18135932359049        2.37893064918356        1.81507823752340
H           -4.69887535970040        4.39486920309440        0.43700471692139
H           -5.27846425871346        4.47020489641246       -1.24852722389333
H           -6.14573815457724        5.31362748781772        0.00443435708505
H           -1.85464800713583        2.94964983833599        3.89130376043774
