25
 energy: 38.493179238093 xtb: 6.6.1 (8d0f1dd)
C            3.47988110234665        1.58567406835335        0.09236942378094
N            2.65040290368840        0.40970460788963        0.05309432508386
C            3.05986852205778       -0.85067231313572        0.05105301689694
N            1.99377863128843       -1.67891990101118        0.02076146721083
C            0.84427429332554       -0.91392925965598        0.00345456381346
C            1.28229018167887        0.41730517076757        0.02518577740791
C            0.31840972765184        1.48955575272236        0.00135420871490
O            0.58909123191845        2.68344345921524        0.00361794170767
N           -0.96264280284119        0.99313993770444       -0.02770889280226
C           -2.06303099984771        1.93933167677239       -0.05052661177414
C           -1.35053988118833       -0.38518376378879       -0.04099594460537
O           -2.53409913888665       -0.62832598752059       -0.06533131895412
N           -0.38711696907098       -1.33887152036781       -0.02753595109876
C           -3.32067011484296       -3.52593587355942       -0.11009249296922
H            3.98674110176428        1.66095196033714        1.05552302110804
H            4.22743311243983        1.55024677697211       -0.69999743885078
H            2.83660634152924        2.45602600874104       -0.04133325624891
H            4.08313620307011       -1.16700802954589        0.06891745820176
H           -1.64457489142401        2.94276871608182       -0.02971412144048
H           -2.65842049972779        1.79196976074776       -0.95200194822878
H           -2.70782367361301        1.77502395125774        0.81317760053879
H           -3.10256846984848       -4.02333672493791        0.80996825851533
H           -3.06878145696317       -3.99521415406310       -1.03631137727032
H           -3.65609797425632       -2.51282313945816       -0.10090672622659
H            2.01666782472379       -2.68589239177411        0.01101292968399
