25
 energy: 43.532320935617 xtb: 6.6.1 (8d0f1dd)
C            3.38808120314205        1.46677724369704        0.08441273003246
N            2.53700661373662        0.30082892682147        0.08226560418993
C            2.92570066568206       -0.97467003524460        0.06277769579636
N            1.84731582167079       -1.80201459604256        0.01347419783992
C            0.70977959676377       -1.02216111381789        0.00193540884635
C            1.17261749088489        0.30525145821731        0.04222375624585
C            0.24918286646171        1.41931262449001        0.01606047158970
O            0.59278234255671        2.59704637305046        0.02020613785893
N           -1.03844727897429        0.96469886465899       -0.02841210001617
C           -2.09369807491864        1.96652648551370       -0.05200747718999
C           -1.47457073063229       -0.39858777820269       -0.04247682331993
O           -2.67939304977393       -0.51134426583199       -0.06323947260946
N           -0.55124425520487       -1.39293656746561       -0.03512862014639
C           -2.79189603494807       -3.19815125489067       -0.09843835928684
H            3.89750654462999        1.55813812515246        1.04361082403388
H            4.13752930544060        1.38646968416996       -0.70337330717095
H            2.79333908589423        2.36957331594797       -0.08010748505117
H            3.93878593411783       -1.31067808373546        0.05581330733628
H           -1.58309414741796        2.92552517531913       -0.03466643898156
H           -2.70375718605973        1.86808936268809       -0.95112745016454
H           -2.74509226666314        1.85571836122770        0.81600403162530
H           -2.51367725730257       -3.64419908920522        0.81097659013315
H           -2.49060146970759       -3.60240911688243       -1.02063412776226
H           -3.39712479286356       -2.33085646689746       -0.08675936479526
H            1.91325787187835       -2.81589726960052        0.00822481355151
