25
 energy: 41.081115029054 xtb: 6.6.1 (8d0f1dd)
C            3.42383246073932        1.50740007339219        0.08339802987655
N            2.57797644808145        0.34976538999274        0.06955097785956
C            2.97609965062408       -0.91224265180714        0.04770155956393
N            1.91362257655047       -1.74651336860689        0.00886138359863
C            0.77456338213282       -0.96708078389759        0.00381010837891
C            1.21641333818600        0.36082617878445        0.04339535742656
C            0.27144469597332        1.46662004268951        0.01576831439442
O            0.59599580627593        2.64921378321010        0.01634274998114
N           -1.00630777876607        0.98591784891892       -0.02635259156430
C           -2.09467277265694        1.94937609469262       -0.05309155193625
C           -1.41156506591111       -0.40610285415658       -0.04097263122897
O           -2.60899292557021       -0.55925798427574       -0.06310525940253
N           -0.46381957530388       -1.36761819166202       -0.03227834093482
C           -3.00350569547748       -3.34735785669447       -0.10393092487303
H            3.91089056142288        1.60377992876882        1.05272029982010
H            4.18141168041160        1.40858715340046       -0.68980602254454
H            2.82535015128503        2.40009504548755       -0.10187223051616
H            3.99724870115693       -1.22845102005323        0.04877705444136
H           -1.62343156741591        2.92711469844368       -0.02240140268421
H           -2.69250007742025        1.84150817053372       -0.95952159262940
H           -2.75628661964533        1.81535420115699        0.80408261323055
H           -2.72795264745637       -3.80761087766816        0.81116073598611
H           -2.70212109195896       -3.76654435974755       -1.03114613653143
H           -3.54947869079614       -2.43561832715480       -0.09127917939625
H            1.99790397399513       -2.75503993060950       -0.00200225434471
