72
 energy: 85.464910294680 xtb: 6.6.1 (8d0f1dd)
N           -1.15670676534444        4.04787584819405        2.11828037832167
C           -1.58132916970074        3.23708830310884        1.32880046844923
C           -2.37538354844463        3.09175108573208        0.29097293498556
C           -3.61030286167012        0.43832735830698        0.80354052283613
C           -4.38783844016798        0.06236095564492       -0.26493302248282
C           -4.61843590685166       -1.26936398500296       -0.47436627040266
O           -5.41757078620953       -1.75553213138622       -1.46089063547886
C           -6.09995032449279       -0.89538280366371       -2.35252209890773
C           -4.07535160053339       -2.20539186815218        0.42035726468571
O           -4.44140713686745       -3.47001737954175        0.13563408086714
C           -4.05978123531872       -4.47988338354320        1.01269259814548
C           -3.36723410438741       -1.80914780302875        1.52968271912378
C           -3.13031481465089       -0.44634337472081        1.71732502335805
C           -1.66960584529991        2.91480784777935       -0.98311087339970
C           -1.13091055364805        1.52102007553315       -1.25979568257292
C           -0.11810254304039        1.22494536535541       -0.15966241721143
N            0.47950126938188       -0.04352146389369       -0.26005415316537
C            1.88751635116312       -0.20490085418244        0.05712798122932
C            2.72595005329640       -0.67741976892674       -1.16565119907306
C            4.19440789081445       -0.58373004176895       -0.84111069996437
C            4.90945210313676        0.57736433611184       -1.07972377561161
C            6.24250220026211        0.68831885767545       -0.70444906079821
C            6.88683641506263       -0.36637025352858       -0.08315899447864
O            8.19074807428211       -0.36772883945771        0.32038690425412
C            8.97136436736537        0.77497729973233        0.06916534770822
C            6.16624254550767       -1.55479253882882        0.17545973560497
O            6.87287298475526       -2.53619675994018        0.80506126026967
C            6.22589070213697       -3.74955759521408        1.07865354813383
C            4.83869348007678       -1.64410738242496       -0.20363270204653
C           -0.33639975715208       -1.22815432289646       -0.26975064875070
C           -3.80388525600161        3.48882676174671        0.28382378713404
C           -4.42512501415827        2.95851815707581        1.52587941241235
C           -3.84305621531156        4.98090107195888        0.20989957374476
H           -4.85408227220169        0.77884750232399       -0.92304591156418
H           -6.80146264154766       -0.22405189786611       -1.85648485035066
H           -6.68942087868503       -1.54899191646305       -2.99660709564217
H           -5.40522276094146       -0.31589675225186       -2.96902597796102
H           -4.44026575254440       -4.34232447248577        2.03196173508132
H           -4.47958680343710       -5.38771306630101        0.58866360011267
H           -2.97737586969681       -4.55724639316312        1.04850154517410
H           -3.01832737352169       -2.52708029919585        2.25606175451928
H           -2.59542649574603       -0.07810229490981        2.57934825376018
H           -2.37473236105440        3.20460326384641       -1.76560311410127
H           -0.82976930637426        3.60030861616044       -0.84916176646155
H           -1.96396699883910        0.82578592927607       -1.21937313248124
H           -0.71679856146514        1.52520283424652       -2.28036180452969
H           -0.86732366309981        1.62223304617172        1.02679348473968
H            0.67176075615866        1.98159392173527       -0.18757539592606
H            2.04207693957284       -0.91360612001860        0.88387114432547
H            2.29076652222989        0.76738175320728        0.35590491773832
H            2.50114576969460       -0.03763084031843       -2.02251773626857
H            2.45884826543314       -1.70316939964890       -1.42469166574277
H            4.42789535144228        1.41564403104929       -1.56164680526062
H            6.76704343278582        1.61003720415517       -0.90219618841323
H            8.58377026897341        1.66016640984700        0.58828877609972
H            9.04152206359209        0.98942747234169       -1.00092692602825
H            9.96695288834768        0.54730236522239        0.44806690354478
H            6.97470550889959       -4.38032950399125        1.55574634675193
H            5.38045884870992       -3.61560569145665        1.76250554560896
H            5.87385050837528       -4.22927815947520        0.15925120776675
H            4.27490171524848       -2.54348758251434       -0.00755684750244
H           -1.10100299875496       -1.15925570580523       -1.04416707110458
H           -0.85483869640157       -1.37572875198505        0.70260285560758
H            0.23676390926306       -2.09568130641772       -0.53347962443561
H           -4.28893828277415        3.09749318056399       -0.61266770251658
H           -3.95563150812097        3.34079425340042        2.44144836558777
H           -4.13524653204091        1.85583652729548        1.41302454223131
H           -5.51431003562894        3.16293227973814        1.58608922457401
H           -3.30361034970589        5.39789797186512        1.05226114653735
H           -3.40839094201291        5.32354617480373       -0.72511441770658
H           -4.86556925286402        5.29722455532204        0.26200589579112
H           -0.57610283220317        3.76257999509552        2.87695801923532
