72
 energy: 73.502352594144 xtb: 6.6.1 (8d0f1dd)
N           -1.38980180583048        3.78372078725733        2.20176203191326
C           -1.54942181741348        2.83597195418051        1.40326767400792
C           -2.52192529470369        2.72002632714653        0.34076954491988
C           -3.43981123666423        0.59377035160993        0.68111280387711
C           -4.30564076827561        0.14979595144903       -0.31774194173956
C           -4.62626257411602       -1.17759983055930       -0.48057516593451
O           -5.49396953480538       -1.67630656571064       -1.42698653378376
C           -6.16271658956614       -0.82665973477023       -2.33664396419297
C           -4.11787190826471       -2.12349134340718        0.42666939027310
O           -4.56371599392068       -3.39418435263619        0.19822422769136
C           -4.20229125855183       -4.39354591256919        1.10268652296619
C           -3.36589736147579       -1.69884431109990        1.50393589726426
C           -3.05184291538829       -0.33166763353950        1.62769200936308
C           -1.82448126436538        2.75646191349268       -0.97516470424916
C           -1.15054261010087        1.44029252274900       -1.36187107370281
C           -0.01300805627409        1.17520664589242       -0.42881691787103
N            0.52524259289642       -0.06753374275346       -0.23067126318412
C            1.94124580823783       -0.19413409354346        0.01485592519567
C            2.78109818084668       -0.66198934843810       -1.20193662761795
C            4.24372220391047       -0.56290331749018       -0.85964848380701
C            4.95626873939176        0.60276361762607       -1.08084926286617
C            6.28151056194789        0.71714656044788       -0.68113719499638
C            6.92078770458605       -0.33554308774570       -0.04993717241447
O            8.22190407223595       -0.33895542056628        0.36507671640713
C            8.99767164703142        0.80993554484831        0.12614008326100
C            6.19846122295562       -1.52543959624895        0.19718446282209
O            6.89760556086637       -2.50694007934767        0.83700174903605
C            6.24597113288843       -3.72026224058129        1.09715876123213
C            4.87860997727305       -1.61889348050431       -0.20607155646296
C           -0.27997609149032       -1.25528742966341       -0.33976540424064
C           -3.85317813653417        3.39467505873571        0.34490584736259
C           -4.50664789597991        2.95993496184162        1.61420066342659
C           -3.73659276416587        4.88447344101696        0.28336931939133
H           -4.78663294641223        0.83841995502836       -1.00120392267509
H           -6.81307931995193       -0.10819284569212       -1.83871095648144
H           -6.79969012591837       -1.46868008350752       -2.95137569206664
H           -5.46184709412326       -0.29515825506241       -2.98926716902510
H           -4.54660300405799       -4.19763744723490        2.12453648365675
H           -4.67104264763441       -5.30783462813246        0.73952598009084
H           -3.12155866387418       -4.52073083785440        1.11869062222439
H           -3.02301344197505       -2.41405939946054        2.24628166013236
H           -2.48039417206982        0.00655642736375        2.47470779811167
H           -2.55445046531196        3.03018844021778       -1.75118677904762
H           -1.05670760529992        3.52390023400075       -0.84689452970389
H           -1.91589038062356        0.67286212079155       -1.30177383235636
H           -0.81665766304422        1.53275776599217       -2.40907685212885
H           -0.94057525409174        1.87171464491455        1.38888661750695
H            0.71588956650223        1.97631759640264       -0.37288143768681
H            2.12000583793445       -0.88171251760094        0.85183792451708
H            2.29775795616703        0.80089174660574        0.29202657516921
H            2.56177103520181       -0.01815398218788       -2.05817557503612
H            2.51336014977349       -1.68763519596431       -1.45871875271020
H            4.47883157552757        1.44163799688991       -1.56572399214132
H            6.80392261017188        1.64087200037193       -0.87061359198212
H            8.59828830851424        1.69260913136507        0.64125421329804
H            9.07816406438434        1.02576225452825       -0.94329498206465
H            9.99021944817144        0.58802799250139        0.51538358837082
H            6.98918098112086       -4.35060512758619        1.58313468357935
H            5.39033068915853       -3.58802968275560        1.76881280227214
H            5.90614023560879       -4.19616503230361        0.17109127947725
H            4.30862185905034       -2.51499956951658       -0.01409332629391
H           -0.91279671653265       -1.25930624663066       -1.22170476988104
H           -0.94992403121474       -1.32930406040972        0.53762707065026
H            0.31657986230613       -2.13913951624381       -0.41446584207354
H           -4.40640231261458        3.05589421754194       -0.54102112078477
H           -3.91574709739460        3.26517503970679        2.49046918543083
H           -4.34507881798135        1.87263754467160        1.55221040395101
H           -5.55116837579728        3.26842708989191        1.71790539615187
H           -3.12423062453456        5.23891114544352        1.10212939994912
H           -3.33074003820642        5.19599251376287       -0.67412172373511
H           -4.72290602336474        5.30299787166855        0.39954442353952
H           -0.62132601101617        3.57785564776119        2.82535382844473
