72
 energy: 3.814580281999 xtb: 6.6.1 (8d0f1dd)
N           -1.51561798296859        3.18527721599978        2.25940011734200
C           -1.59311755899383        2.37684490007640        1.30779777344234
C           -2.71780950498589        2.24396891829658        0.32938532534991
C           -3.31464645289967        0.74585747347547        0.47026156249235
C           -4.26944884798207        0.25692055420265       -0.45380235800783
C           -4.74281093586123       -1.05244017573493       -0.49677146954584
O           -5.67630107927856       -1.55162881117912       -1.38167203127950
C           -6.30138450924452       -0.69511679489204       -2.30908193864398
C           -4.27582484183471       -1.99722009211860        0.44526136946152
O           -4.81701728195967       -3.25059953952439        0.32690482628603
C           -4.48271543379980       -4.22046864970500        1.28513932973421
C           -3.38561625048752       -1.54534175299161        1.41489305227711
C           -2.94787261843733       -0.20772877376386        1.42135503230635
C           -2.07194605878170        2.46808782131150       -1.06890934065155
C           -1.20640598474567        1.30565961529184       -1.56393101467464
C            0.02466382942905        1.17472171440075       -0.72453880284036
N            0.60224850159401       -0.06954793523062       -0.43511892627702
C            1.99068717143659       -0.11094340538270       -0.09970792773003
C            2.88640792672493       -0.60122049523567       -1.25966092831695
C            4.32594713173050       -0.49281061606433       -0.86130841538113
C            5.03725497697256        0.67455488030665       -1.06452706520840
C            6.35064224936584        0.78822210714577       -0.63271113668271
C            6.97364779719031       -0.26322417764524        0.01579544762333
O            8.26464503739506       -0.26656195682016        0.46356952686515
C            9.04364197555070        0.88088682433242        0.24204666460283
C            6.24920190440577       -1.45418201419893        0.24541768436771
O            6.93683367270799       -2.43606687117243        0.89740981648411
C            6.28806587621439       -3.65728532127470        1.13063291199790
C            4.94112935706879       -1.54868915990715       -0.18931854810680
C           -0.14571508213871       -1.29712219750549       -0.51254778978039
C           -3.89967447779033        3.20194741435395        0.48479805878322
C           -4.53131439159756        2.86109241276639        1.81564084564214
C           -3.53166007179082        4.66967022692337        0.44140315502291
H           -4.69330538723461        0.92947305044097       -1.18296722656292
H           -6.83839637209940        0.11446464475323       -1.81145182347418
H           -7.02387986340036       -1.30095349239454       -2.85987363824945
H           -5.58306466165806       -0.27427284901704       -3.01895451722294
H           -4.75629256809357       -3.91052612563194        2.29792978798162
H           -5.04753833025974       -5.11643902218708        1.02590707456005
H           -3.41510757019892       -4.44986170285677        1.26123637114765
H           -3.02166291592233       -2.23640240890458        2.17546486801693
H           -2.26781784288640        0.06104768347045        2.20809493053674
H           -2.86262285545746        2.65463900921993       -1.81063621281092
H           -1.43454690199937        3.35149695367854       -1.01592974204931
H           -1.80757145771043        0.40532320498532       -1.49922227646597
H           -0.98847222714709        1.49551831363730       -2.62784513541333
H           -0.78970101737071        1.64161756969443        0.99887746222801
H            0.75086207468937        1.97940329555964       -0.76064933425898
H            2.15226620650772       -0.75743431636324        0.77069220697306
H            2.29551196742585        0.90340412612645        0.17078769569570
H            2.68629548335821        0.02918255751081       -2.12927597977489
H            2.62020292221397       -1.63071135365246       -1.50259317265391
H            4.56946366638032        1.50973838283355       -1.56448401811419
H            6.87770850779452        1.70956002115712       -0.81550072251787
H            8.62899621538530        1.76180452285059        0.74693723160426
H            9.15084847981846        1.09603592963965       -0.82606051669282
H           10.02402705221266        0.65670743827762        0.65923646523414
H            7.02652500307141       -4.28458546204355        1.62773280993925
H            5.41677917002211       -3.53704439529990        1.78419919740843
H            5.97315292754016       -4.13130789573535        0.19447885237142
H            4.36842903647015       -2.44738667330131       -0.01456802639636
H           -0.52439656926710       -1.50540767511353       -1.51785938853710
H           -1.01446304515437       -1.25553513168511        0.15812116164164
H            0.45761415035981       -2.15036651870910       -0.20954040202715
H           -4.59563986501953        2.99822345451714       -0.34390956117527
H           -3.80628631300686        3.05242966146278        2.61386927081599
H           -4.68284461427301        1.78792215576955        1.80553312229194
H           -5.45973966827213        3.39248512089801        1.98716648940021
H           -2.80434100374141        4.90499644493591        1.20786894374289
H           -3.15563949160441        4.96283878030288       -0.53584583144685
H           -4.42561745862456        5.24614533978018        0.64981988882244
H           -0.63516422705549        3.09807745090857        2.76082405106164
