72
 energy: -4.472975526749 xtb: 6.6.1 (8d0f1dd)
N           -1.50433140612809        2.97711583284110        2.25519797318501
C           -1.57333895522563        2.24840584499795        1.23900894756087
C           -2.73682925859431        2.14566999287032        0.29589127241681
C           -3.32336942611275        0.70184033321798        0.39734223318326
C           -4.29725531753854        0.25469425556082       -0.51179133667474
C           -4.80149201251600       -1.03813642839557       -0.51089439619015
O           -5.75059122780746       -1.52387047261675       -1.37392408926754
C           -6.34989501334323       -0.65339349511735       -2.30178339189262
C           -4.34165461106897       -1.97238375349017        0.44387851245787
O           -4.90820048032113       -3.21334937226425        0.36669800322714
C           -4.57557840553106       -4.16248347747986        1.34615555555710
C           -3.41309552312636       -1.54153285632814        1.37833447700919
C           -2.92407307214642       -0.23248753333754        1.34647590305377
C           -2.13561311713938        2.38239222232849       -1.12477859099282
C           -1.23396345959244        1.24659240218922       -1.63024986577804
C            0.02091578164090        1.15772035403229       -0.82695592946431
N            0.62008192761474       -0.05826386034540       -0.50770391993656
C            1.99852865361177       -0.07214802303531       -0.13374974044205
C            2.91502880605911       -0.57309879947401       -1.27169208719255
C            4.34668459831747       -0.46348514734351       -0.85264044993941
C            5.05901317997705        0.70285509055169       -1.05476369729215
C            6.36998900018794        0.81511986353445       -0.61641205384108
C            6.98674316413111       -0.23631779203804        0.03771017482139
O            8.27238675230594       -0.23967975881975        0.49686788486234
C            9.05700345701554        0.90456482683962        0.28130539079075
C            6.26141027556174       -1.42783696504046        0.26278660428519
O            6.94645039676972       -2.40985158761382        0.91563104031784
C            6.30277191551535       -3.63599906782394        1.14170739460412
C            4.95587007276805       -1.52139251842457       -0.17820761734389
C           -0.09541993094405       -1.30357180153918       -0.56768118568734
C           -3.88586866106039        3.13985086824220        0.53448380857922
C           -4.51113224633522        2.81253532392281        1.87909182979051
C           -3.46264038521548        4.60018194352872        0.49659300984222
H           -4.68061356418046        0.93965426674666       -1.24942781015759
H           -6.84330477238753        0.18690056136553       -1.80616041203527
H           -7.10055771779689       -1.24294451211055       -2.82886029978523
H           -5.62495609344339       -0.27236978313102       -3.02814419763664
H           -4.82124830519968       -3.81213809759382        2.35337180811261
H           -5.17203166630113       -5.04576668310670        1.12016937350838
H           -3.51418041154035       -4.42476995400688        1.30771647151986
H           -3.04307558672469       -2.22820750187800        2.13207319996246
H           -2.21036497308700        0.04092826147907        2.10589905864763
H           -2.94871859107846        2.52250460895848       -1.84612025777065
H           -1.54109464749224        3.29710189421219       -1.11015131196410
H           -1.79655220608385        0.31982968426111       -1.56766975992082
H           -1.02920554302125        1.44150924473217       -2.69736402778328
H           -0.73489691197666        1.62854483483125        0.81976831453985
H            0.72249379464712        1.98161026584707       -0.88795439173840
H            2.13899189519819       -0.70811370037780        0.74773736879631
H            2.29553663450609        0.94490651076940        0.13365913013382
H            2.72725849904560        0.04756186958781       -2.15027222506785
H            2.65281369532212       -1.60510723755413       -1.50902379517430
H            4.59611574164952        1.53616012501861       -1.56231587726678
H            6.90124401563952        1.73408127946766       -0.79988084370819
H            8.63964251714377        1.78576934912990        0.78236662684528
H            9.17539511845407        1.11879945068546       -0.78610294160867
H           10.03136221198750        0.67536734686941        0.70975102642542
H            7.04155932773763       -4.26107736923118        1.64117864501664
H            5.42765729575958       -3.52202355776401        1.79109910924639
H            5.99679892146145       -4.11138648130621        0.20329866087297
H            4.38511918991743       -2.42277176589623       -0.01093569531180
H           -0.37696584869860       -1.57314929627990       -1.59095284991652
H           -1.01512625186691       -1.24858109999257        0.02526677430868
H            0.51656867124725       -2.10964223580228       -0.16374724931153
H           -4.62476525396979        2.98182173219124       -0.26340819325758
H           -3.77505874029056        2.97221313958265        2.66683443438412
H           -4.77334622014364        1.75772605875631        1.89115130643860
H           -5.39313601873211        3.41865444930100        2.05979787641770
H           -2.70196227806659        4.79503972279311        1.24268625630551
H           -3.09566755059628        4.89080052532340       -0.48508779669653
H           -4.32483848563063        5.21742229301917        0.73043496335869
H           -0.61700873671583        2.92996562121479        2.74983093627824
