72
 energy: -6.152283512198 xtb: 6.6.1 (8d0f1dd)
N           -1.49811723012870        2.87168144173192        2.25091072452512
C           -1.56113698354805        2.19539778932735        1.19650126265340
C           -2.74130079706451        2.10029208867742        0.27114215329199
C           -3.32361247780897        0.67471479300008        0.36199744719148
C           -4.30365937765341        0.24986480151928       -0.54398053898905
C           -4.82769965326772       -1.03147092068657       -0.52068111735683
O           -5.78695569995290       -1.50855482214725       -1.36990103856078
C           -6.37401182055992       -0.63215427511079       -2.29837445311601
C           -4.37254278836098       -1.95915304594712        0.44245427742247
O           -4.95227848420690       -3.19273025551572        0.38771964318580
C           -4.62051097278589       -4.13240715028665        1.37686402705827
C           -3.42208747227486       -1.54367153794316        1.35713920376705
C           -2.90861555402813       -0.24799638440978        1.31061460406759
C           -2.16485368868382        2.34033617354005       -1.15609413870950
C           -1.24892450460964        1.21212421831488       -1.65776595428439
C            0.01372941137119        1.14476159832336       -0.86995931344907
N            0.62841846876612       -0.05153265969180       -0.54006548261339
C            2.00126165518338       -0.05129644607664       -0.14839749131161
C            2.92727447917903       -0.55682273205800       -1.27619495514410
C            4.35478641764090       -0.44806410246912       -0.84618474937088
C            5.06836363107946        0.71744877440038       -1.04912646677712
C            6.37860566820522        0.82905168617309       -0.60901100493475
C            6.99199086447440       -0.22241969619732        0.04819487065194
O            8.27426603892999       -0.22548369991871        0.51369434670151
C            9.06326688549503        0.91616092513992        0.30091959877399
C            6.26610321517953       -1.41421284196906        0.27169745280385
O            6.95006326469696       -2.39629298565759        0.92439137556707
C            6.30962280437214       -3.62516832237840        1.14753562564263
C            4.96155655339396       -1.50738065692632       -0.17126902429591
C           -0.07043769882450       -1.30436329417281       -0.59404764096878
C           -3.87740741724788        3.10810833524693        0.55842562022563
C           -4.50081478996425        2.79259546425024        1.91111802726086
C           -3.42863891354901        4.56451750292406        0.52270404271302
H           -4.67033736721633        0.94134866596696       -1.28392500672017
H           -6.84634468990149        0.22238987463999       -1.80443135766868
H           -7.13833937344765       -1.21430516039295       -2.81233266059892
H           -5.64688365950874       -0.27108868909837       -3.03329373847762
H           -4.85260834305430       -3.76385478190247        2.38123835124423
H           -5.23247631238595       -5.00826515290396        1.16585438247304
H           -3.56283133822025       -4.41170072779899        1.33142571116875
H           -3.05612998754100       -2.22995736670116        2.10921102257707
H           -2.17808635201658        0.02881448841842        2.05418641589357
H           -2.98728058858994        2.45327752030609       -1.86726788565737
H           -1.59380594860503        3.27023975955618       -1.15914658270309
H           -1.79942375474567        0.27656557138606       -1.60179568664547
H           -1.02442414228536        1.40228577864131       -2.71889438228215
H           -0.70791860112226        1.63893032202522        0.72949836697232
H            0.68837698138181        1.98757229785940       -0.93511868641791
H            2.12828303492083       -0.68482457321549        0.73679369468184
H            2.29754077894246        0.96600638241585        0.11873595917083
H            2.74736144370829        0.05805956350896       -2.16000593220331
H            2.66720070115372       -1.59010506682368       -1.51061204054966
H            4.60870440147974        1.54942205506779       -1.56185782016845
H            6.91283597143561        1.74629902088951       -0.79439971423988
H            8.64545985294605        1.79799783663543        0.79982438389858
H            9.18803251264450        1.12948222446388       -0.76609941766642
H           10.03405576208936        0.68320138538648        0.73557140265250
H            7.04873694708115       -4.24883401017272        1.64820918291486
H            5.43279079206492       -3.51450986057971        1.79510232440238
H            6.00846230328050       -4.10200668814562        0.20832505538443
H            4.39311824888852       -2.41092351737751       -0.00810204752045
H           -0.29878758428196       -1.60244255509812       -1.62267151333510
H           -1.01454503679382       -1.24525635485735       -0.04270195733910
H            0.54132532378980       -2.08191461221858       -0.13920266580013
H           -4.63744601131424        2.97139027550895       -0.22186346008810
H           -3.76282266124469        2.93461772231875        2.69715382535481
H           -4.82260945746901        1.75434677947749        1.93395376981616
H           -5.35616622695325        3.43748748527543        2.09302602744362
H           -2.65138202541138        4.74023286563756        1.25763096881528
H           -3.06801108569118        4.85362440108448       -0.46170339211076
H           -4.27470306954193        5.20054318267587        0.76950477149833
H           -0.60692096325188        2.84615306018988        2.74223211833454
