72
 energy: 85.375243926504 xtb: 6.6.1 (8d0f1dd)
N           -1.33878856911765        3.86248620819810        2.17699277702026
C           -1.53614265249808        2.92137852564916        1.38297181327795
C           -2.47820374461776        2.84104657205669        0.32386887296246
C           -3.48943384585920        0.54348222635585        0.71979605491486
C           -4.33012379814919        0.12011766259093       -0.29985966316241
C           -4.61916472003453       -1.20834785375094       -0.47751327274715
O           -5.46750352836727       -1.70242839560260       -1.43756625422416
C           -6.14096623301507       -0.85005973818155       -2.34171232155014
C           -4.09699810940533       -2.14967422435312        0.42424642192213
O           -4.52157925415657       -3.42021018289765        0.17788212427337
C           -4.15528103170157       -4.42315977229233        1.07286006832131
C           -3.36471240224587       -1.73570936135818        1.51517048604587
C           -3.07602444569374       -0.36986158827028        1.65834810704331
C           -1.77446561035764        2.80929607552473       -0.97280925089930
C           -1.14309175918330        1.46172409566909       -1.32612636337263
C           -0.02715361836360        1.17909989498205       -0.37229458172016
N            0.50748518878687       -0.06170439265790       -0.20712972032183
C            1.92647196657685       -0.19950447651718        0.03337193027028
C            2.76085019631011       -0.66713984448985       -1.18989839510862
C            4.22725539265044       -0.57047458497025       -0.85485190327278
C            4.94079849928033        0.59356428114216       -1.08138545989472
C            6.26865788449475        0.70693613339352       -0.68924935408754
C            6.90996046777205       -0.34612321734543       -0.06097210970670
O            8.21144653942604       -0.34905074439108        0.34969851004284
C            8.98918818142973        0.79808470886629        0.10710665116453
C            6.18789484735227       -1.53589153679571        0.18963534990190
O            6.88928839507663       -2.51675514838623        0.82618951442877
C            6.23924834373421       -3.73025797988384        1.09115194048351
C            4.86537290569791       -1.62790356102703       -0.20618894727375
C           -0.29949847469541       -1.24820805973520       -0.31399713329082
C           -3.83875826162251        3.42950529936849        0.32282218258591
C           -4.48653803163667        2.96477586989355        1.58254767508157
C           -3.77405240219115        4.92067976276345        0.25894510834109
H           -4.80837384765914        0.81862862719296       -0.97399766955003
H           -6.80883458056899       -0.14639813255688       -1.84554800871830
H           -6.76310857352815       -1.49622239303726       -2.96690660098168
H           -5.44245233634797       -0.30138284696155       -2.98342212982871
H           -4.51069242591476       -4.24613850638937        2.09489165757521
H           -4.60753654808765       -5.33768412981098        0.69084577469600
H           -3.07326698252544       -4.53313793351156        1.09533391545876
H           -3.02204657703935       -2.45272149147591        2.25203471690586
H           -2.51872926585570       -0.01632767125999        2.51152471535260
H           -2.49284463127466        3.08622624009129       -1.75327445576687
H           -0.98068399913942        3.54835833089628       -0.83773188044106
H           -1.93462962552217        0.72125388585497       -1.27081880878730
H           -0.78549964674480        1.53213177287066       -2.36815301335228
H           -0.97868653049017        1.88936415342533        1.32413390629907
H            0.70480581386877        1.97669958670803       -0.30969637666531
H            2.09776396137037       -0.89477512001532        0.86359540679142
H            2.29633872063837        0.78872336469584        0.31430523341802
H            2.54111541328959       -0.02405762949624       -2.04625352545954
H            2.49469815138451       -1.69301648869104       -1.44824507311185
H            4.46235787555011        1.43247237334373       -1.56511027827086
H            6.79152410117327        1.63012128312362       -0.88134164887897
H            8.59335142189831        1.68145440725853        0.62356710916586
H            9.06613722822248        1.01353536910665       -0.96253936326811
H            9.98302975529206        0.57472542425692        0.49247706305573
H            6.98414683761000       -4.36066425791975        1.57458644731329
H            5.38681341566837       -3.59716404918699        1.76657501415580
H            5.89537271431371       -4.20709614613204        0.16714291768433
H            4.29732119283449       -2.52484686108525       -0.01242764521757
H           -0.97332701376093       -1.21776381461251       -1.16464570812387
H           -0.92511610205007       -1.34781667567419        0.59459275659645
H            0.29301627259813       -2.12758242215973       -0.45725912000179
H           -4.36938509225254        3.07084116823862       -0.56813911470617
H           -3.93671547711740        3.29185828467075        2.47582903102492
H           -4.27712381030949        1.87667138196797        1.50240408183097
H           -5.54742190179982        3.23554878639973        1.67243339955817
H           -3.18326614253592        5.29250894846317        1.08565689685483
H           -3.35939961939830        5.23866995221419       -0.69229584164473
H           -4.77338023988604        5.30734849180759        0.35624242864276
H           -0.61067291967929        3.64591324808271        2.84206727226549
