72
 energy: 95.902779519965 xtb: 6.6.1 (8d0f1dd)
N           -1.26418925121976        3.93335001874383        2.14894414563067
C           -1.53515797841800        3.02706254671468        1.35383944799652
C           -2.42660017695313        2.97273062945101        0.30339636395635
C           -3.54954664263318        0.48972307804078        0.76278106412879
C           -4.35861739590347        0.08971191550672       -0.28147299435688
C           -4.61731394964328       -1.23960636042165       -0.47452757301621
O           -5.44249238259594       -1.72874920441312       -1.44883846672587
C           -6.11981052274470       -0.87279203511076       -2.34684484691601
C           -4.08754520773992       -2.17735941669723        0.42463812055696
O           -4.48149993189658       -3.44623711484255        0.15714795966668
C           -4.10793797245425       -4.45196369260706        1.04279017730961
C           -3.36548844296636       -1.77463974223515        1.52376803132330
C           -3.10249006669999       -0.41094674673490        1.68769109964607
C           -1.72214311761442        2.86190928623650       -0.97705717621846
C           -1.13567500169842        1.48758220791410       -1.29141009743412
C           -0.05687586454948        1.19439915697761       -0.29041084863629
N            0.49105720469525       -0.05463505008563       -0.22077940189771
C            1.90795421662143       -0.20305343690502        0.04752846618288
C            2.74187341762325       -0.67205459938042       -1.17755087662350
C            4.21054270575983       -0.57704821002876       -0.84775816992644
C            4.92473495335104        0.58540712273440       -1.08053534160053
C            6.25541134057788        0.69745825805294       -0.69708425124882
C            6.89851993586720       -0.35631639791904       -0.07225952495712
O            8.20042283575491       -0.35838214558755        0.33481938009543
C            8.98008139113308        0.78670889940247        0.08827824986813
C            6.17707841822258       -1.54583506999633        0.18228985577088
O            6.88084255033567       -2.52638882514810        0.81523466203850
C            6.23250329798504       -3.74009227891485        1.08489392826495
C            4.85183863753478       -1.63628904211341       -0.20511183628176
C           -0.32018871155168       -1.24057799433378       -0.29270265318493
C           -3.82138362436241        3.46220698583804        0.30118002400736
C           -4.45795106262938        2.96600753796572        1.55298633633104
C           -3.80989868910041        4.95355396215198        0.23345468122343
H           -4.83053786271046        0.79900101426063       -0.94727004146515
H           -6.80467254964522       -0.18473813768747       -1.85174815167570
H           -6.72616998694510       -1.52297474655739       -2.98155606691264
H           -5.42336356216980       -0.30811986346910       -2.97674784290005
H           -4.47531693023435       -4.29451148192330        2.06390912352372
H           -4.54362755781114       -5.36423332604426        0.64063568109661
H           -3.02541486597462       -4.54540972213697        1.07195170268476
H           -3.02058555399210       -2.49234758500667        2.25508852088398
H           -2.55706483857853       -0.04711090129958        2.54519267757868
H           -2.43120831572650        3.14324753154491       -1.76050131460779
H           -0.90185053137791        3.57104591254311       -0.84211720359169
H           -1.94966591705700        0.77133517064659       -1.24359799680621
H           -0.75145992134462        1.53284523386278       -2.32440057247038
H           -0.97254169156860        1.84576207041539        1.21899371584104
H            0.69374668767553        1.97930209415801       -0.25021204382789
H            2.06903626797743       -0.90619186981222        0.87330971386440
H            2.29414501349404        0.77729271757343        0.33690037916734
H            2.52068832709791       -0.03022776679876       -2.03422610722135
H            2.47641135122625       -1.69801393014125       -1.43693352149621
H            4.44498292151630        1.42398489541646       -1.56357688598275
H            6.77889127803372        1.61999575951627       -0.89188577508616
H            8.58813673897104        1.67086271674378        0.60612586269585
H            9.05373384068474        1.00167255411226       -0.98153589890680
H            9.97477870880954        0.56124527055076        0.47045477234721
H            6.97916058787710       -4.37056430685173        1.56561637471916
H            5.38354684313510       -3.60630184766225        1.76438121398942
H            5.88473549173167       -4.21834675831285        0.16316000498970
H            4.28623104789116       -2.53469245324677       -0.01055306546182
H           -1.03861328283322       -1.18520790498633       -1.10828744014075
H           -0.89834061332655       -1.36138300434944        0.64919105313640
H            0.26581623196951       -2.11446045824835       -0.49882017794860
H           -4.32993333460798        3.08424686701771       -0.59260966733283
H           -3.94988580109593        3.31785413140361        2.46095552060651
H           -4.20714147932255        1.87343786705660        1.45449235098827
H           -5.53432390934275        3.20048803006442        1.62772178411098
H           -3.24362210496751        5.34673465747233        1.06774353907789
H           -3.38602720159444        5.28171998062254       -0.71045042429407
H           -4.82131313120767        5.30403882850496        0.30936245108749
H           -0.59284580110091        3.70951327024804        2.85929407216903
