72
 energy: 10.499327309591 xtb: 6.6.1 (8d0f1dd)
N           -1.52070011019332        3.28670553938389        2.26351037012475
C           -1.59945388291137        2.44895898634842        1.33695115576519
C           -2.70284727133408        2.29513813969434        0.34048222509944
C           -3.31336944553760        0.75351869479637        0.50837473180308
C           -4.25602070090008        0.25053396411766       -0.42751220938665
C           -4.71449594002468       -1.06332355721143       -0.49155491368298
O           -5.64086600792109       -1.56635013546573       -1.38570513681475
C           -6.27716735502703       -0.71587114559969       -2.31289070477235
C           -4.24329382066846       -2.01232179390087        0.44431106281993
O           -4.77202247070673       -3.26973429189573        0.30706002514452
C           -4.43602510956263       -4.24868664160972        1.25492861528573
C           -3.37159485875015       -1.55735216788462        1.43021247514725
C           -2.95884902826736       -0.20549021689196        1.45979219202307
C           -2.03804836657050        2.51144717317090       -1.04437451507031
C           -1.19398426816211        1.33252378030626       -1.53061182955990
C            0.02284698700833        1.18113180602752       -0.67192373120247
N            0.59182883584446       -0.07314667388204       -0.39719669993735
C            1.98531081908478       -0.12859469198520       -0.08156849218850
C            2.87074277977126       -0.61402925254310       -1.25215580111798
C            4.31403240908477       -0.50641263287173       -0.86360363165219
C            5.02508046380682        0.66128679863985       -1.06839509618627
C            6.34001530268230        0.77551777610078       -0.64077824274428
C            6.96597551024417       -0.27605757371510        0.00486377116344
O            8.25918173934398       -0.27928717157530        0.44708072881007
C            9.03651491838397        0.86906963079223        0.22258278621459
C            6.24198904443328       -1.46677662446970        0.23717760719145
O            6.93118313335795       -2.44860800314512        0.88804665208670
C            6.28095051900593       -3.66792210381200        1.12531062888715
C            4.93236679318537       -1.56161844961879       -0.19344263339417
C           -0.17117679321150       -1.29148339627160       -0.48352639558566
C           -3.90242782001768        3.23226956011204        0.45963415254009
C           -4.53960073384348        2.88571064039151        1.78292153534323
C           -3.56533218199753        4.70386110734381        0.41368075230319
H           -4.70068873574528        0.91992060353489       -1.14916351665095
H           -6.83520484424441        0.07840825162556       -1.81527193646562
H           -6.98561476430390       -1.32936751844908       -2.87470703100540
H           -5.56223866929945       -0.27593340854277       -3.01430015051887
H           -4.72256327358744       -3.95879043455742        2.27008449934660
H           -4.98540289347064       -5.14943337422470        0.97855131615517
H           -3.36582945547613       -4.46186020982914        1.23782140308977
H           -3.01685863332783       -2.25215379182077        2.19474952125900
H           -2.29784024241270        0.06677879348863        2.25955347405613
H           -2.81679063495996        2.71971101393498       -1.79489231888749
H           -1.38055024324559        3.37903839352527       -0.97198267204457
H           -1.81807223322823        0.44839520897819       -1.46523596902460
H           -0.96258172911536        1.51369296951745       -2.59269256966158
H           -0.81458240805866        1.67206773964604        1.08383846168155
H            0.75593966426017        1.98022026428991       -0.69578743355286
H            2.15447739318918       -0.78148215106983        0.78306701265274
H            2.29649678563937        0.88382726536744        0.18972183875143
H            2.66574403770194        0.02005588585591       -2.11823957629066
H            2.60315709461832       -1.64250591183288       -1.49745695879148
H            4.55534142548925        1.49719144324350       -1.56539385192844
H            6.86570752943254        1.69764078529934       -0.82402717459568
H            8.62381918196204        1.75007887877195        0.72928884116354
H            9.13872986563748        1.08450877398541       -0.84581081376664
H           10.01944379085378        0.64634275110584        0.63459574458727
H            7.01973553048539       -4.29597235218239        1.62096126611975
H            5.41186810060862       -3.54516921296017        1.78140068475353
H            5.96178141938243       -4.14179858809693        0.19053997259441
H            4.35949664654566       -2.45947126864799       -0.01548454890653
H           -0.59459657321584       -1.46875146632391       -1.47597990930236
H           -1.01274624319316       -1.26059759231007        0.22371040000084
H            0.42458474582909       -2.16291096688786       -0.23145276326535
H           -4.57566338506236        3.00725805345914       -0.38295670528602
H           -3.82595937515942        3.09236234636534        2.59070467938151
H           -4.63815698973282        1.80856649140367        1.76368455583955
H           -5.48932575359613        3.38017844844108        1.94651450457856
H           -2.85623231376571        4.96038081279039        1.19031038021377
H           -3.18525511863106        4.99913252786944       -0.56107489889734
H           -4.47530516071002        5.25802720906960        0.60843729216214
H           -0.64254684374197        3.18208845806041        2.76665204267147
