72
 energy: 43.325843862946 xtb: 6.6.1 (8d0f1dd)
N           -0.82941753015190        4.26499812337825        2.17161271905733
C           -1.48313619561910        3.69998668982364        1.33384201236409
C           -2.18542880084209        3.50199370755214        0.25816541459680
C           -3.82547321492117        0.31353032716163        0.95527328993603
C           -4.52509757018334       -0.06704178063372       -0.17742607530103
C           -4.64911651582646       -1.40476984252509       -0.47558863905563
O           -5.35540431096995       -1.89788208231863       -1.51870043587804
C           -6.02952777818494       -1.01333583546069       -2.37758933866930
C           -4.07190436453725       -2.35259851979641        0.39474038972331
O           -4.29266804572374       -3.62376984335767        0.02286625440737
C           -3.84068013574713       -4.63721686218790        0.85958585045181
C           -3.40110197738444       -1.96015293273906        1.53420866533017
C           -3.27021002065016       -0.60236090713283        1.81508353421607
C           -1.47184225318113        3.14408192799319       -1.00152877419522
C           -1.14281374394044        1.66057296382715       -1.13553345694702
C           -0.21964463374123        1.26149376512641        0.00541921775808
N            0.41425973406072       -0.00534986817078       -0.27703556353289
C            1.79869707159637       -0.20446971749995        0.09961695663537
C            2.64022537682676       -0.69894885112675       -1.10954972579379
C            4.11243395932073       -0.61224337848230       -0.81116635353657
C            4.83027151655247        0.54186510120940       -1.07545889739642
C            6.17433812000211        0.64553665523030       -0.73871703238255
C            6.82638568410295       -0.41171035329175       -0.13210835617391
O            8.14226294663218       -0.42133520473765        0.23716319131604
C            8.92725056048795        0.71546732533464       -0.02556087932864
C            6.10649955273090       -1.59636975689695        0.14306030936083
O            6.83165911196301       -2.58300851892937        0.74594188541457
C            6.19555973027485       -3.79682957997556        1.04359691041685
C            4.76829916750999       -1.67920056652309       -0.19734144089792
C           -0.39790928158896       -1.19570686029612       -0.20481752572136
C           -3.67493443704622        3.64501774443290        0.22934440938235
C           -4.27610984897580        3.00573970995333        1.42417910829222
C           -3.99110840275783        5.13251419933784        0.11921682760740
H           -4.97741151736413        0.67709710802050       -0.81054643679079
H           -6.80182583394211       -0.42449343289356       -1.87085299205227
H           -6.51931654784540       -1.67393467156291       -3.08741241944902
H           -5.34452386055277       -0.34259054256187       -2.90440343441707
H           -4.29447400123214       -4.59932284295127        1.86199171700653
H           -4.16091786965094       -5.53519276644073        0.34165979709941
H           -2.75369024329791       -4.62322171381114        0.95173532244852
H           -3.01070478984870       -2.68394820038741        2.23232646037495
H           -2.75229956958277       -0.27591962587195        2.70371693139887
H           -2.10650517717678        3.45158237483523       -1.82227558234341
H           -0.54433671341347        3.71633074622853       -0.98890782727643
H           -2.06406155997786        1.07888896163103       -1.08984814596102
H           -0.64821522351683        1.48038673149701       -2.09795571326456
H           -0.79862336832143        1.30512586381882        0.94743477908328
H            0.59641679135863        1.98922349609171        0.10793268496195
H            1.91447048029867       -0.92106535028182        0.93196058251952
H            2.22208132654564        0.74644421847279        0.42415109757811
H            2.40117576264631       -0.06719008944063       -1.96909346667631
H            2.36900945239961       -1.72515523256492       -1.36521414550602
H            4.34156732189260        1.37958167433979       -1.55126427428684
H            6.70374305969052        1.56163410271976       -0.95418367173238
H            8.55810349480688        1.60247299192732        0.50240555028436
H            8.98137249268627        0.93195054423017       -1.09635120116769
H            9.92599734106768        0.47549061201301        0.33905205958169
H            6.95986720393773       -4.42362470276875        1.50082405459489
H            5.36919245576870       -3.66316626721668        1.75046479937635
H            5.82213757962804       -4.28496110427264        0.13741572272206
H            4.21159501080338       -2.58103922374493        0.00722124517453
H           -1.34049580542802       -1.01642198489225       -0.69997920498757
H           -0.58561114862298       -1.49036689624994        0.83381454734118
H            0.07999550658838       -2.01737846474485       -0.73942349333564
H           -4.05886971107216        3.16877205646043       -0.67476470755384
H           -3.85285732059751        3.31244423542236        2.37104682253804
H           -3.90589842152873        1.50352416423056        1.24930765782424
H           -5.36897158255369        3.04678098419435        1.44778962981996
H           -3.61148951569525        5.64609030567623        0.99421013331584
H           -3.50659186077279        5.55032900718083       -0.76155355765538
H           -5.05551769641036        5.27514207511099        0.02824871298158
H           -0.39233860581114        3.93077454266108        2.99730290428889
