72
 energy: 19.168833866118 xtb: 6.6.1 (8d0f1dd)
N           -1.52188416651322        3.38739310596215        2.26256041403541
C           -1.60298058313917        2.52603154904238        1.35550203604357
C           -2.68449163848090        2.34922338470451        0.34837359266968
C           -3.32073880398253        0.74379958833989        0.54212903160476
C           -4.24959156444275        0.23725403619502       -0.40466426715915
C           -4.68982772627919       -1.07935821505643       -0.48777992203183
O           -5.60786065978623       -1.58384855877231       -1.39123532571708
C           -6.25329816390462       -0.73702556513885       -2.31712419772435
C           -4.21425214407125       -2.03021209993023        0.44254675440895
O           -4.72858321657258       -3.29092177011359        0.28674436408308
C           -4.38935106775643       -4.27717983253577        1.22473890318626
C           -3.36670280883011       -1.57540217180407        1.44860229551345
C           -2.97032611276797       -0.21674288078249        1.49582496181423
C           -2.00291323915523        2.55568747137199       -1.02279593492387
C           -1.18196482425038        1.35881739375209       -1.49774303364632
C            0.01906640694083        1.18803039335177       -0.61900274513825
N            0.58051990860851       -0.07406017960462       -0.35915137397291
C            1.97878615135704       -0.14476486071692       -0.06274532850585
C            2.85425212949904       -0.62576842805543       -1.24366142785198
C            4.30123332334917       -0.51925319728838       -0.86484008810974
C            5.01228890825796        0.64855389773769       -1.07180080443390
C            6.32896296648221        0.76317401835932       -0.64889480593145
C            6.95773868761096       -0.28857832721777       -0.00611472843249
O            8.25296838283831       -0.29175449495029        0.43063442249131
C            9.02917200219530        0.85716162196493        0.20319899751745
C            6.23417347016428       -1.47906329232174        0.22896608427054
O            6.92510390055475       -2.46085416138702        0.87836128737435
C            6.27384322848489       -3.67850199086100        1.11989810536319
C            4.92283486427252       -1.57406698336668       -0.19704557075631
C           -0.19566541511640       -1.28323248580971       -0.45482621897943
C           -3.90160293949463        3.26215348359907        0.43435509855841
C           -4.54360139709564        2.90950719978593        1.74961182541646
C           -3.59879087014998        4.73785580998206        0.38610637546784
H           -4.71165450787709        0.90570490257236       -1.11828256885555
H           -6.83156352939323        0.04194920589627       -1.81956381110319
H           -6.94753786706002       -1.35741135591841       -2.88991902668060
H           -5.54143536454179       -0.27821784658024       -3.00941583448013
H           -4.68839490177580       -4.00714243351252        2.24191470322660
H           -4.92291002035372       -5.18191759326880        0.93080273223564
H           -3.31668250729463       -4.47354244644050        1.21419007466031
H           -3.01513501915383       -2.27677607959506        2.20921359700565
H           -2.32978885242774        0.06716894198425        2.30780626180096
H           -2.76927933147781        2.78376452132696       -1.78145148672691
H           -1.32541808931941        3.40698923781530       -0.93158754559500
H           -1.83014682897626        0.49240282327976       -1.43181547822672
H           -0.93483712024520        1.52916224407528       -2.55766470574936
H           -0.83824455880177        1.71301688303472        1.16167773627200
H            0.75713636270549        1.98292056432915       -0.63035490567366
H            2.15353709077173       -0.80484410548919        0.79599374028787
H            2.29766780085026        0.86509182856639        0.20957096071896
H            2.64500464565193        0.01152169873286       -2.10661556466595
H            2.58563276670540       -1.65332116282553       -1.49136889349121
H            4.54078259802372        1.48513578615448       -1.56607237950439
H            6.85364010156377        1.68587409843815       -0.83295417922580
H            8.61874662490141        1.73838381178940        0.71166517565141
H            9.12668487976261        1.07281164641665       -0.86545167671463
H           10.01439341838961        0.63534199049890        0.61028252534856
H            7.01314781889083       -4.30719073179525        1.61395566437315
H            5.40713783178746       -3.55348743152912        1.77873835750216
H            5.95047413390355       -4.15247815634419        0.18665216950802
H            4.35004964221928       -2.47122924821328       -0.01599798482845
H           -0.66324955479779       -1.43001388783689       -1.43125076992807
H           -1.00781464788576       -1.26843879217709        0.28906921291489
H            0.40049375706371       -2.16376763331385       -0.26136546949765
H           -4.55211299672578        3.01696830779226       -0.41977560907783
H           -3.84548549739270        3.13215052975514        2.56882486688869
H           -4.58913536976446        1.83071751295166        1.72478975902527
H           -5.51422236754019        3.36677579705460        1.90319946878059
H           -2.90878920920743        5.01534027954342        1.17270884592568
H           -3.21496732103922        5.03589787997899       -0.58596063138949
H           -4.52492512572326        5.26809885565680        0.56683697353263
H           -0.64873317650291        3.26521535125549        2.77203509236588
