72
 energy: 72.823479854513 xtb: 6.6.1 (8d0f1dd)
N           -1.07502458533169        4.11585248647866        2.08939286066066
C           -1.56750939792692        3.34794647951907        1.30543685868028
C           -2.33965805315843        3.17354661647425        0.27596391957194
C           -3.65232706903350        0.40374895130261        0.83276185294769
C           -4.41329802118767        0.03579347510356       -0.24944551034890
C           -4.62218415003762       -1.29733307214276       -0.47405958423036
O           -5.39638447650054       -1.78319713825278       -1.47494102678005
C           -6.08193266489475       -0.91772930431322       -2.35812062343713
C           -4.07530505528437       -2.23384297491238        0.41847486065435
O           -4.40490975856113       -3.49861377624951        0.11088710480903
C           -4.01266428761379       -4.50840720644386        0.98175398141772
C           -3.37357171086657       -1.84170353606690        1.53371083173790
C           -3.15563679009851       -0.47998148068569        1.73764693101994
C           -1.62245164913766        2.96267688686882       -0.98706993943595
C           -1.12452005109246        1.55016814226524       -1.23286351635984
C           -0.14809034360216        1.23693657138170       -0.09537788194169
N            0.46042667428497       -0.03609548244402       -0.26590689903091
C            1.86666899469458       -0.20832141337932        0.06758052025192
C            2.70791195348893       -0.68269577620329       -1.15429802936949
C            4.17759762030490       -0.59024526521832       -0.83489948565454
C            4.89366662290510        0.56937249425453       -1.07939184104257
C            6.22920961288482        0.67900476903248       -0.71230861549594
C            6.87522723037025       -0.37626022306287       -0.09411166814570
O            8.18039545901951       -0.37742851662901        0.30522374698324
C            8.96259857730221        0.76320550426249        0.05027792223920
C            6.15507716450643       -1.56405875777720        0.16812037905119
O            6.86458596674332       -2.54560464225598        0.79393322512989
C            6.21994445883470       -3.75927088563757        1.07215887427585
C            4.82515903613647       -1.65215421801873       -0.20298904886447
C           -0.35550988265526       -1.21915354833111       -0.24603074769939
C           -3.78140562776686        3.51953813093752        0.26940653497080
C           -4.39139052244892        2.95167858999374        1.49987219042105
C           -3.87436676642121        5.01164008439492        0.18973624427635
H           -4.87631771102378        0.75905966542240       -0.89975053427291
H           -6.80046704314178       -0.26430320358684       -1.85952824251088
H           -6.65319958583481       -1.57433819929453       -3.01290238163185
H           -5.38866434221630       -0.32103164109065       -2.95958495561420
H           -4.40648372451039       -4.39020573155921        1.99884474385753
H           -4.41517517716906       -5.41230408015508        0.53685348038582
H           -2.92969941927912       -4.56850448966661        1.02557896882791
H           -3.01802664661625       -2.55957723613810        2.25593721259931
H           -2.62918328504877       -0.11548028526487        2.60558937209523
H           -2.31774443843109        3.25938647065980       -1.77290484390427
H           -0.76605053039536        3.63085059492475       -0.85816712865548
H           -1.97756602518507        0.87858962168644       -1.19401944283436
H           -0.68979797088715        1.51675092303459       -2.24258966808490
H           -0.83239559730226        1.53559547260595        0.96304846800512
H            0.65273811696847        1.98320127608349       -0.12132062704178
H            2.01620416915062       -0.92110977887083        0.89335260139459
H            2.28474651737498        0.75621369494243        0.37492502566558
H            2.48107536690885       -0.04385265660337       -2.01109398500072
H            2.44063468429401       -1.70827803185123       -1.41367098317515
H            4.41087575806814        1.40750209503330       -1.56035854991156
H            6.75480062944337        1.59983127906816       -0.91297948945919
H            8.57928168832491        1.64918094862616        0.57071523864948
H            9.02966978819605        0.97703412266533       -1.02000962957377
H            9.95870878364678        0.53288005740247        0.42639958001930
H            6.97156614222661       -4.38946262021779        1.54543841586715
H            5.37822913908491       -3.62542172632622        1.76056961500431
H            5.86405113808833       -4.24091264958204        0.15528245078457
H            4.26338480645296       -2.55252945857457       -0.00543415291537
H           -1.16162752745564       -1.13051067149041       -0.97793989645634
H           -0.81448015770821       -1.39312370084405        0.75433843607100
H            0.20292353453527       -2.07821114779749       -0.56816188242711
H           -4.24702600326158        3.11336760305782       -0.62766633862129
H           -3.95895910161266        3.36110302815637        2.41864635258546
H           -4.07241092289001        1.83023596145779        1.37563432921896
H           -5.48918991760847        3.12597476216978        1.54985567603622
H           -3.36300945908589        5.45109719591901        1.03936327036323
H           -3.43074577563785        5.36688627075119       -0.73749327809293
H           -4.90865350443248        5.29239375268544        0.21595279942599
H           -0.54866438153827        3.82558179704833        2.87900281961059
