72
 energy: 30.358768604815 xtb: 6.6.1 (8d0f1dd)
N           -1.51648192618342        3.49024842734800        2.26060766109657
C           -1.60120437879563        2.60616653117954        1.37351750841600
C           -2.65845598511957        2.41435197187876        0.35326852458626
C           -3.33392367351919        0.72581070709736        0.57386299548532
C           -4.25415070190523        0.22392188008826       -0.37981410887806
C           -4.66862787605871       -1.09718937958421       -0.48524612393867
O           -5.57662645664976       -1.60285353189931       -1.39803401314082
C           -6.22999530953774       -0.75848282487574       -2.32182263363194
C           -4.18763172606982       -2.04931896852941        0.43900524574247
O           -4.68574384573613       -3.31333226099374        0.26536751836775
C           -4.34242758020009       -4.30546569989072        1.19422506558039
C           -3.36674919684883       -1.59661060519762        1.46493136773005
C           -2.98752822172808       -0.23172386472689        1.53145124411410
C           -1.96423886404726        2.60200580156337       -1.00448367964986
C           -1.17074887952223        1.38275724241913       -1.46525620438204
C            0.01405289113967        1.18810939666452       -0.56866573559983
N            0.56899471320166       -0.07649369903195       -0.32062368157349
C            1.97168064013974       -0.16046846930661       -0.04335899944003
C            2.83733650572368       -0.63680209367636       -1.23446248011383
C            4.28784026008196       -0.53143662908007       -0.86515205424932
C            4.99900608675097        0.63633022960558       -1.07473616731953
C            6.31756442496408        0.75118643196705       -0.65699388592191
C            6.94906914666637       -0.30077925110207       -0.01709877348285
O            8.24619388965708       -0.30395129741496        0.41421681600543
C            9.02164078625226        0.84527691197965        0.18385350635764
C            6.22591247900615       -1.49104963939212        0.22087459781299
O            6.91876244173658       -2.47282174181197        0.86845512787158
C            6.26684824102679       -3.68901944629749        1.11440286839197
C            4.91274019931123       -1.58607673607417       -0.20008483630742
C           -0.21953981637609       -1.27555647078596       -0.42589625119373
C           -3.89598204089414        3.29294358489160        0.41175651512761
C           -4.54451643739378        2.92662025559593        1.71607731548003
C           -3.63238316685149        4.77258817989450        0.35972501046050
H           -4.72747666963009        0.88980011636350       -1.08946759134596
H           -6.82752583404494        0.00512755985527       -1.82416180500425
H           -6.90989754799864       -1.38537214429852       -2.90516545863737
H           -5.52105198434931       -0.28117456138401       -3.00466788938042
H           -4.65361789142898       -4.05508192487796        2.21310193532039
H           -4.86020749199053       -5.21339021751426        0.88256263358990
H           -3.26755314269417       -4.48515487431902        1.19026956829812
H           -3.01743968095198       -2.30538059482581        2.21923485158435
H           -2.36458970149811        0.06299705240736        2.35405721007082
H           -2.71958799087745        2.84737492259729       -1.76977267100879
H           -1.26667161204770        3.43611511894043       -0.89721254454523
H           -1.84525515397533        0.53683559937973       -1.39853975523930
H           -0.90534097067451        1.53422627697581       -2.52306250101997
H           -0.85958506426811        1.76206881559198        1.23602723911947
H            0.75431847063926        1.98154309650761       -0.56573704226365
H            2.15080828578541       -0.82750223152115        0.80971860154125
H            2.29847245133817        0.84683501210745        0.22970559266045
H            2.62425550781188        0.00331820793432       -2.09467344731556
H            2.56799923826572       -1.66348238033949       -1.48458072941347
H            4.52581287448989        1.47352857818371       -1.56643929566260
H            6.84146026954519        1.67430791194503       -0.84213716349837
H            8.61370451908293        1.72679902953119        0.69402908780557
H            9.11466657288061        1.06107645337220       -0.88502934082245
H           10.00894354651738        0.62395463410394        0.58623597746314
H            7.00684237195441       -4.31827032600387        1.60670791310337
H            5.40266650793027       -3.56196503232657        1.77617808301719
H            5.93933182585370       -4.16328276153112        0.18279441817790
H            4.34027100263439       -2.48271011143201       -0.01607068131710
H           -0.73056488224610       -1.39048338492584       -1.38362641053888
H           -1.00064291923795       -1.27906046231401        0.35357094791096
H            0.37908209622147       -2.16004986950992       -0.29651452681323
H           -4.52078706208771        3.02571592934176       -0.45190465921181
H           -3.86534602301976        3.16903576550006        2.54757778136172
H           -4.53284425942847        1.84356352716881        1.68596864245566
H           -5.53364938100331        3.34895715097909        1.85780253754802
H           -2.96175743163774        5.07066767655787        1.15538811008987
H           -3.24449317394826        5.07324214986931       -0.60977158082668
H           -4.57451556346637        5.27734008093257        0.52523584724484
H           -0.65181722063961        3.34828761082659        2.77998614868531
