72
 energy: -1.082477966425 xtb: 6.6.1 (8d0f1dd)
N           -1.50986461084909        3.08253475003063        2.25765942929991
C           -1.58397475599601        2.31036357926667        1.27589481706951
C           -2.72941369984959        2.19429110652423        0.31676470506671
C           -3.32033677235429        0.72807744886528        0.43404242437073
C           -4.28458705243887        0.25773651723592       -0.48196562133966
C           -4.77234988741003       -1.04458422026547       -0.50321933493991
O           -5.71302044987782       -1.53805414480330       -1.37809157387287
C           -6.32563259304318       -0.67448769262416       -2.30543061981188
C           -4.30918227972191       -1.98432688314011        0.44516804244215
O           -4.86266023865047       -3.23232818671079        0.34660890179610
C           -4.52924620247185       -4.19212359212073        1.31537315282672
C           -3.40043768148461       -1.54053177595922        1.39781122733080
C           -2.93770397434569       -0.21727675240173        1.38391349000885
C           -2.10440324969440        2.42500436849697       -1.09492449448476
C           -1.21947294584509        1.27743430177154       -1.59703648543667
C            0.02431484125761        1.16733436493026       -0.77626526734457
N            0.61196325000030       -0.06452660938643       -0.47214726730628
C            1.99510345677255       -0.09214503980614       -0.11693354502101
C            2.90118340597909       -0.58744656035174       -1.26610926371435
C            4.33684070856751       -0.47851066358875       -0.85776733250962
C            5.04866676393165        0.68833094115216       -1.06010152300934
C            6.36073530689268        0.80131079027179       -0.62471275313980
C            6.98066093789429       -0.25005370961297        0.02666108974363
O            8.26923261007927       -0.25347802382161        0.48007984088325
C            9.05051022373645        0.89266576076662        0.26152563337710
C            6.25574041866909       -1.44125917055141        0.25380155596468
O            6.94203025985195       -2.42322440709972        0.90650170143894
C            6.29519883133384       -3.64659864402089        1.13597739300418
C            4.94902961641002       -1.53530668841338       -0.18444087001446
C           -0.12042581532260       -1.30101775317721       -0.54066530095187
C           -3.89398675475180        3.17108355449990        0.50988913901151
C           -4.52129521077424        2.83681097103851        1.84769703731702
C           -3.49757156199039        4.63494870169739        0.46882803542197
H           -4.68694007777952        0.93589180106516       -1.21675196921035
H           -6.84113392452153        0.15027508053071       -1.80820124297118
H           -7.06202557514511       -1.27235140189322       -2.84481934517777
H           -5.60389769361643       -0.27306072528644       -3.02346330567376
H           -4.78946045763287       -3.86217393510548        2.32550056733349
H           -5.10949961635993       -5.08235280867485        1.07274444049982
H           -3.46449943648140       -4.43766004053481        1.28449899400595
H           -3.03116338840551       -2.22792695797276        2.15516831346587
H           -2.23879931457343        0.05193348661885        2.15622006043823
H           -2.90619279561885        2.58845490085367       -1.82762273772930
H           -1.48780994414826        3.32409000056188       -1.06187811932824
H           -1.79966823627336        0.36275222914548       -1.53333256719247
H           -1.01163459080313        1.47278882477692       -2.66262354525099
H           -0.76202342390680        1.62993503823402        0.90894695836184
H            0.74081767762050        1.97975010356670       -0.82473950203910
H            2.14698181769688       -0.73308781564475        0.75899652345488
H            2.29502440183305        0.92368765251322        0.15278203653114
H            2.70670147850411        0.03871817331327       -2.13972658886479
H            2.63668915191034       -1.61802875923336       -1.50662575225042
H            4.58306599524344        1.52268897124177       -1.56341348394953
H            6.88961526224267        1.72160880885627       -0.80753421779172
H            8.63429421966082        1.77364393705143        0.76454233300201
H            9.16304150616493        1.10742053065855       -0.80626266018973
H           10.02806751055606        0.66642059428654        0.68416796937995
H            7.03353624172307       -4.27302764974082        1.63436245532083
H            5.42189953076509       -3.52914995434524        1.78728792511308
H            5.98461095617300       -4.12106764798945        0.19860915160728
H            4.37688868615011       -2.43509096076418       -0.01311044017112
H           -0.45193088633972       -1.54024977170389       -1.55633119690785
H           -1.01518731602150       -1.25149697511265        0.09204808764303
H            0.48897319411479       -2.13210203574235       -0.18720642486498
H           -4.61195437399929        2.98969301030346       -0.30375515888641
H           -3.78798277658587        3.01241940623708        2.63854867726851
H           -4.72716315234756        1.77091727614528        1.84849290728212
H           -5.42702460002486        3.40547514001359        2.02533384018165
H           -2.75290186229602        4.84934803741024        1.22489881165339
H           -3.12601931708359        4.92641092379104       -0.51082430262617
H           -4.37558964659517        5.23240892778713        0.69035889597633
H           -0.62692665567747        3.01413184014044        2.75724148395103
