72
 energy: 32.900386157531 xtb: 6.6.1 (8d0f1dd)
N           -0.82400958586052        4.48657463943278        2.24884985316501
C           -1.43792230405956        3.98292694986796        1.32581306820155
C           -2.10178052646899        3.67178609572947        0.25092877124541
C           -3.92426220935696        0.25362313252718        1.01976715847279
C           -4.60115261397057       -0.13651228389925       -0.12832704814850
C           -4.71825318283215       -1.47668996752275       -0.45039647517438
O           -5.36472131325901       -1.97391282999562       -1.54184984867545
C           -6.04216418127958       -1.08120604361267       -2.38847799900496
C           -4.14200504552122       -2.44660571829360        0.40239721301165
O           -4.31742728147989       -3.73812900948347        0.00489298873941
C           -3.85020161147703       -4.77018084051684        0.83449036717455
C           -3.47402277793829       -2.04031119370237        1.54352294066377
C           -3.36666750381051       -0.68851647094109        1.85249059925820
C           -1.38800016587510        3.24546522801274       -1.00906375057538
C           -1.17345149581796        1.72953159945269       -1.07995245507525
C           -0.25487996879703        1.22524499333619        0.04148326091526
N            0.40960297190376        0.00376989668365       -0.36268236673845
C            1.78168064359355       -0.17649108043360        0.06121979281803
C            2.63244665538888       -0.69385292886390       -1.11595876423777
C            4.09466086022867       -0.60763631998169       -0.79661084897635
C            4.80663793593515        0.54658368459031       -1.06393539157944
C            6.15322708807449        0.64538978513797       -0.74169018533635
C            6.80838736983270       -0.41350174987518       -0.14021918935336
O            8.12474564026079       -0.43345824258451        0.21641497676745
C            8.91267985411216        0.69669959597407       -0.05358079362460
C            6.08981503270142       -1.59660923484798        0.14339140814650
O            6.81812454610553       -2.58623331708053        0.73436026445047
C            6.18842243814476       -3.80509562208629        1.03167987920686
C            4.74913750875685       -1.67549048097358       -0.18538600046911
C           -0.40460236557557       -1.17887183270025       -0.22152491700222
C           -3.61688553609665        3.75027364841578        0.22360853118710
C           -4.25914274953702        3.17208556485456        1.42696286676294
C           -4.03372526092459        5.23486692498345        0.06935999882825
H           -5.04320204032221        0.61885500615521       -0.75953803909546
H           -6.81124386689140       -0.51689484468478       -1.84995352386919
H           -6.51792538401658       -1.70351678489207       -3.14515605004116
H           -5.35461604145707       -0.38251943596105       -2.87766283016988
H           -4.31925776548364       -4.73777061613410        1.82389742508246
H           -4.13328989403873       -5.69501248427707        0.33357600127821
H           -2.76111115995844       -4.74010913781123        0.94739395604340
H           -3.03613136465419       -2.76794899118488        2.20885304755000
H           -2.84961405690806       -0.38813454844714        2.75149761980787
H           -1.98203683361253        3.56295858151378       -1.86966030184994
H           -0.41746043019289        3.74375922754637       -1.06989885808681
H           -2.13501527778213        1.21592120728010       -1.03430613448060
H           -0.70074905817313        1.48557785782814       -2.03343415869328
H           -0.83610970240970        1.09844524235505        0.96903214882094
H            0.50792759671500        1.98653539495500        0.22444039106686
H            1.87239705191927       -0.87138117975174        0.91087021457747
H            2.19537198143833        0.78435275175922        0.37674957606763
H            2.40345164200354       -0.07622778111082       -1.98528903391681
H            2.35221968382062       -1.72239591256378       -1.34537036652816
H            4.31507127768600        1.38377636078196       -1.53682254062995
H            6.68119502986145        1.55786818742955       -0.97049046740572
H            8.54891561895358        1.58300005740177        0.47759643234315
H            8.96031592642441        0.91174809008048       -1.12668379048508
H            9.90959276460065        0.44666913214911        0.30690731339448
H            6.96152266218251       -4.42772209841646        1.48007929160134
H            5.36942430165111       -3.67606558589461        1.74768862923136
H            5.80772488663695       -4.29661670216851        0.12974792788499
H            4.19032469602016       -2.57536536626186        0.02201527744291
H           -1.35913008960889       -1.02260646668985       -0.72079402549195
H           -0.60749812831228       -1.44228622844369        0.82972949477810
H            0.09946178948763       -2.01758645958521       -0.69925387506510
H           -3.97195461148470        3.22053965575722       -0.66943089821456
H           -3.79233219229509        3.31289580994181        2.38534922935551
H           -3.87212809760825        1.32754730648271        1.25722047761061
H           -5.32832429537519        3.04802784719000        1.41994583656659
H           -3.72128252832991        5.79723492326044        0.94588957132427
H           -3.55685735729586        5.66445073512085       -0.80856800558410
H           -5.11322463180997        5.31648682292777       -0.03763802249065
H           -0.49681377367170        3.94728469172199        3.04197948337823
