25
 energy: -42.173090592537 gnorm: 0.002988973917 xtb: 6.6.1 (8d0f1dd)
C            3.47136422195412        1.80918318580930        0.09958862772840
N            3.46016092378651        0.81294022216684       -0.65026980984658
C            1.49986185069122       -1.13631078561384        0.30098504537863
N            0.90087161537493       -2.36135729896881        0.18377891574941
C           -0.43033074252496       -2.23281844075270        0.03891381594125
C            0.49684674013489       -0.21303920121966        0.21851202903690
C            0.15330410828739        1.21460517585946        0.21880921065675
O            0.84970288241467        2.19107844990254        0.31720529836723
N           -1.23549958430563        1.22063195112962        0.06341768310038
C           -2.02040699049590        2.43504115442944        0.01773640703998
C           -1.80031002884926       -0.02243177402134       -0.03686613488521
O           -2.93891581551361       -0.34517129839418       -0.17496507500258
N           -0.68257319212766       -0.91798696954761        0.06197896151835
C           -1.41913632873809       -3.30765959172445       -0.10674162825494
H            3.32153358735191        1.66293380044602        1.16217559650144
H            3.60157928963287        0.95386715524655       -1.64651739487998
H            3.63563059978007        2.84068752857373       -0.21386435185116
H            2.55868580853102       -0.99444351695473        0.39166599732667
H           -1.33321460314563        3.27700464319126        0.07260582859319
H           -2.59023046959644        2.47560916758797       -0.91010812040720
H           -2.71292974040463        2.46524176087727        0.85879607143869
H           -1.35320299989020       -4.00789680216199        0.72639385067121
H           -1.24523357867558       -3.87249207366775       -1.02359700727788
H           -2.42050099331609       -2.88395532315796       -0.14035114053989
H            1.39337495374476       -3.24502257743593        0.20188894179724
