25
 energy: 0.000000000000 xtb: 6.6.1 (8d0f1dd)
C            3.23720132972391        1.16630909158653        0.08434468864950
N            2.29877796055224        0.07527476373246        0.03981602671198
C            2.58028186251803       -1.21425391179017        0.03006175752192
N            1.43813944744728       -1.93419254010258        0.00098261751768
C            0.39035684826767       -1.05887462812143       -0.00790371763344
C            0.93510047688824        0.21347817468824        0.01709077332874
C            0.09450143016486        1.40504290868848       -0.00410946993748
O            0.49712746915594        2.54126690785742       -0.00342325656480
N           -1.25076628431515        1.06271869620815       -0.03085477937476
C           -2.21907191394203        2.15522079838987       -0.05001256521996
C           -1.81739470187490       -0.20012724136556       -0.04692818139228
O           -2.99983858926755       -0.37846413507442       -0.07008877579474
N           -0.92618577614240       -1.30210203518959       -0.03682761236648
C           -1.46982251276835       -2.64643077634382       -0.06029819901142
H            3.71247229913541        1.21471443890471        1.06488839270555
H            4.00791460421487        1.03430799217987       -0.67357688121503
H            2.69909982127087        2.09770098766290       -0.09130154035862
H            3.56654087521359       -1.63682977417947        0.04233139674524
H           -1.67107945562430        3.09322822573871       -0.02552706696334
H           -2.82428927394145        2.09428605349656       -0.95318074103337
H           -2.87644002486466        2.07745706351925        0.81450059976605
H           -1.17061985538665       -3.19584861009707        0.83242224714061
H           -1.14560246782873       -3.17511580834413       -0.95688266944647
H           -2.55549768731684       -2.55659960601237       -0.07459039105944
H            1.38130842369251       -2.94313824728853       -0.01389874052104
25
 energy: -5.332501817220 xtb: 6.6.1 (8d0f1dd)
C            3.25091576567166        1.17233229073918        0.08777039359107
N            2.31105334096221        0.09361817067841        0.03785756907052
C            2.60220216857260       -1.23473124760301        0.02932766011139
N            1.42968657513708       -1.94139266342123       -0.00139474745452
C            0.39823484937310       -1.05619357437453       -0.00884557928463
C            0.93178573226845        0.22244808648648        0.01583696279626
C            0.09863933870116        1.39558673705520       -0.00247195251048
O            0.49608776488067        2.56086570191452       -0.00086465597892
N           -1.26734090133258        1.05457006736519       -0.02814105550119
C           -2.23143858362151        2.15193059664282       -0.05340306565771
C           -1.82715820998658       -0.19894690505297       -0.03981635560528
O           -3.02330985620925       -0.38448913938095       -0.05795607952975
N           -0.93329525920815       -1.29918832204475       -0.03546967492535
C           -1.46723120406623       -2.64301622291859       -0.06166846187287
H            3.72285465600947        1.22300536399959        1.07230209917716
H            4.02485898571104        1.03096558612373       -0.66774354384458
H            2.70990465911444        2.09763420524423       -0.09748617700719
H            3.58064335058295       -1.66191614825011        0.04080712536562
H           -1.67312694871048        3.08513899966604       -0.03246842152279
H           -2.83876051368190        2.09911029632547       -0.95727893253517
H           -2.89339254016592        2.09038591040763        0.81028957155966
H           -1.15669782727724       -3.19932510956190        0.82477139419758
H           -1.14400012781852       -3.16921308802237       -0.96188078785487
H           -2.55237576567647       -2.55479476535482       -0.06814641718911
H            1.36347485574247       -2.94535603791924       -0.01689295540028
25
 energy: 2.597737349507 xtb: 6.6.1 (8d0f1dd)
C            3.37765532812742        1.12329761184256        0.12254580302494
N            2.35249437763107        0.12541173708072        0.01633283761160
C            2.62271033172012       -1.29462322336453        0.01248413696557
N            1.37311314910442       -1.91913257552413       -0.03727778488398
C            0.40881813953688       -1.01145678123497       -0.01734765917778
C            0.92203137218874        0.28257991042217        0.01453105140259
C            0.07248472035646        1.37909544902518        0.02913950953389
O            0.36489759102701        2.59125253581628        0.03398760569105
N           -1.39402321413721        1.05557295445360        0.01922951421612
C           -2.34859628751662        2.16431635863086       -0.11391829830759
C           -1.88240101298232       -0.19248178841164        0.08744253999384
O           -3.07736129261881       -0.46166343890736        0.17415269538685
N           -0.95080031287640       -1.25122348095796        0.00377931502615
C           -1.39760407524966       -2.61722272638599       -0.08511422460055
H            3.75972376030969        1.24910318177302        1.15412650277941
H            4.25526953394023        0.87996503526244       -0.51374221433748
H            2.94993310128878        2.08099210931432       -0.20968394054467
H            3.57069210413989       -1.77711213523400       -0.00745078875917
H           -1.75095134388396        3.07508053270036       -0.16942723467370
H           -2.95937529998493        2.07739378675221       -1.02053006148268
H           -3.05407276780184        2.23687567650215        0.72911377443242
H           -0.92035600162710       -3.25809617601554        0.69021661964120
H           -1.16149441300061       -3.03673279028891       -1.08206135660327
H           -2.48556780349499       -2.59266776775449        0.06922258578046
H            1.26499462077616       -2.91949520675243       -0.07271701592065
25
 energy: 15.516386643467 xtb: 6.6.1 (8d0f1dd)
C            3.44440361419624        1.08749895445062        0.14238616654338
N            2.37116613374209        0.13323505992258        0.00377468490012
C            2.62337997804971       -1.31904467288826        0.00212709706373
N            1.35005799423408       -1.90426576114947       -0.05677011139235
C            0.41176080708393       -0.98822636001071       -0.01964119074430
C            0.91949966462495        0.31270754505274        0.01771419101009
C            0.05605063213075        1.38189632917220        0.05013748721277
O            0.28810434497748        2.60402677316441        0.05990285552236
N           -1.46498226853895        1.06546876774458        0.04331846908214
C           -2.41477828354933        2.17742182913809       -0.15075813696332
C           -1.91214175582750       -0.18917913050946        0.16130563082038
O           -3.09662763328100       -0.50853203219214        0.31452484350180
N           -0.95479017803442       -1.22449612160179        0.02780871931206
C           -1.35537773264523       -2.60363471738838       -0.09948316727785
H            3.76648938185569        1.26124236988897        1.19948368897043
H            4.37799541484714        0.78069626532482       -0.41718710703926
H            3.09380609850674        2.06366215124486       -0.27842233785287
H            3.55811111949114       -1.82980154605390       -0.04424604962919
H           -1.80260263616232        3.07792026145050       -0.25141064636215
H           -3.02723094554949        2.06171972538691       -1.05742208079856
H           -3.13898073654729        2.32148883753439        0.67978705960630
H           -0.78989548617816       -3.28521517104750        0.60815069972466
H           -1.17634162970170       -2.96111435815829       -1.14742120974952
H           -2.43987122385660       -2.62146141894665        0.14654596533605
H            1.22500963110451       -2.90498479078526       -0.10717160860232
25
 energy: 33.738514460081 xtb: 6.6.1 (8d0f1dd)
C            3.57335693181314        0.94237427126394        0.19286232118590
N            2.42079117094342        0.09468130570002        0.00612970600601
C            2.60169811358724       -1.24334817569782       -0.01148588930022
N            1.40282813766468       -1.86595207309392       -0.11247777624953
C            0.40038481107240       -0.93749190355482       -0.02670690962205
C            0.97568219111622        0.34350762101322        0.05380910332814
C            0.08586262730526        1.46838581324600        0.08969663794224
O            0.22120323267601        2.65947204373956        0.24758405208494
N           -1.60837029598335        1.10676807245861        0.01616811157963
C           -2.60752172863514        2.19847132743727       -0.25176753439054
C           -1.99037817098599       -0.15502842751071        0.29852009961689
O           -3.04784203555685       -0.56013729846461        0.69815447588944
N           -0.92580830234963       -1.17643338467536        0.05929387837331
C           -1.29405305444790       -2.57054436660010       -0.12775051906697
H            3.68063618343177        1.24911529788742        1.23687573775425
H            4.48728807632453        0.38259614296708       -0.09297904272271
H            3.50418688140383        1.82954786078483       -0.44387233097857
H            3.53542039174882       -1.74379959428525       -0.20551024575816
H           -2.08148984492024        3.12996939303801       -0.49359919420641
H           -3.26608889676822        1.99621156408758       -1.11709610272651
H           -3.30781251409819        2.48164456898432        0.54892588568622
H           -0.57164925115873       -3.24793866622356        0.35681060837481
H           -1.31563602420141       -2.79736545116420       -1.20294524569290
H           -2.27469810545927       -2.73181025492847        0.31243191139739
H            1.31422378045007       -2.86386689766530       -0.20403782631001
25
 energy: 47.214139522080 xtb: 6.6.1 (8d0f1dd)
C            3.62327963555473        0.90773711397469        0.21720828343733
N            2.42971212540675        0.10580012656962        0.01081196778278
C            2.60777679947738       -1.24491814027089       -0.02868464619012
N            1.40134322088493       -1.86081475761363       -0.13405031999957
C            0.40697757908364       -0.92252318722476       -0.03725416211885
C            0.97663108702104        0.36057272590384        0.05857047086466
C            0.08055989267643        1.47543744894936        0.10315628519699
O            0.22104251638440        2.66037713586292        0.28615510797809
N           -1.65327416084993        1.12470630914053        0.00520516669282
C           -2.67706076738641        2.20850833688141       -0.28339129336412
C           -2.00794898341768       -0.13492947030250        0.33865480642999
O           -3.04870588935780       -0.57031489386763        0.83002773633311
N           -0.92146900632159       -1.16138525847898        0.06983850587178
C           -1.27069707669653       -2.56006141559463       -0.13815677581777
H            3.66385875407594        1.28025664258131        1.26725883071939
H            4.55302410779224        0.26957932517646        0.02848465808708
H            3.65125695496180        1.77622294752449       -0.51568528251925
H            3.53882506406426       -1.74590704553573       -0.25228375941270
H           -2.16891168341287        3.14235242759422       -0.57026214797730
H           -3.35290290330913        1.97290288535592       -1.13339131424088
H           -3.37472751446521        2.52732787836520        0.51819229811242
H           -0.49762865944737       -3.25367991503571        0.27823582361632
H           -1.36157207944450       -2.75461288643063       -1.23119036585442
H           -2.22607577346846       -2.75505677652749        0.37819811701585
H            1.31890106516639       -2.85854876825366       -0.23861407844902
25
 energy: 50.752468581609 xtb: 6.6.1 (8d0f1dd)
C            3.60596582647620        0.90837262166214        0.24245438813192
N            2.42258897091712        0.10589639515685        0.04300386275291
C            2.64809827432732       -1.25303697888536       -0.07174860811776
N            1.45079782584939       -1.89053199413368       -0.15229482945695
C            0.44316025901558       -0.98312380546163       -0.06248074752504
C            0.97546936905975        0.31001992764950        0.04678184064067
C            0.07751280518766        1.43358855374443        0.09539049957307
O            0.33376997539924        2.59650845744263        0.30524170867414
N           -1.64110115820026        1.17681888384928       -0.07373857661720
C           -2.73684723014943        2.25337335371618       -0.28042921181924
C           -1.98113593250644       -0.07072869524565        0.29125022476747
O           -3.00205261920736       -0.48316831951778        0.78631618828597
N           -0.89381690840448       -1.18462083389973        0.04932306496461
C           -1.30619277126007       -2.56464486742721       -0.12327726610345
H            3.61817126436407        1.44441072104242        1.19891184102662
H            4.48707298924043        0.25579794077951        0.24269065632974
H            3.74838009880777        1.62729526548121       -0.57209096861216
H            3.60381858419711       -1.70533911229645       -0.25893494765457
H           -2.29158935195405        3.19282305959548       -0.60783949518156
H           -3.45778707982449        1.98843259488161       -1.07411591644416
H           -3.39520020129236        2.52456679746398        0.57136877687765
H           -0.51793999289736       -3.26458429230771        0.19726130406742
H           -1.52472204285530       -2.78111401197140       -1.18227128494883
H           -2.19013692548167       -2.75155725532805        0.48480977093169
H            1.43593027616416       -2.89642561724683       -0.26854836234839
25
 energy: 56.620419272681 xtb: 6.6.1 (8d0f1dd)
C            3.60348797790154        0.93068641609972        0.20589470365639
N            2.44048729069842        0.08437035095784        0.05294344051459
C            2.66790231225220       -1.27164576486793       -0.03590290816725
N            1.46993303930193       -1.91726442039748       -0.14932775409769
C            0.45168245010824       -1.00836224531249       -0.06971200238459
C            0.98794273250069        0.28889327561355        0.04332061388093
C            0.08698453224176        1.40397372916059        0.10295112895257
O            0.31234899081291        2.56637030143655        0.34483432791344
N           -1.66152609295122        1.18413903624255       -0.06562649693087
C           -2.74021275823063        2.29066894246790       -0.25916163832110
C           -2.00846309707340       -0.06607728044994        0.26928970647316
O           -3.02073378136617       -0.50453671451462        0.74253063677098
N           -0.89139635569160       -1.18741067489709       -0.00198850330577
C           -1.30639934181564       -2.58113392086420       -0.13692807569974
H            3.54214312323117        1.55068594375856        1.09798983666605
H            4.48412177030067        0.29912016038582        0.32410370720170
H            3.78133102446604        1.55627952465098       -0.67725287665653
H            3.63379724965542       -1.73532373842735       -0.16898512499043
H           -2.28081413157718        3.23007880868303       -0.56195999716396
H           -3.47240733519392        2.06678119355052       -1.05478656118666
H           -3.39340983765936        2.56957808872461        0.59354444176103
H           -0.50530952985881       -3.28182040158585        0.14332308672015
H           -1.57636752811627       -2.79659310814225       -1.17865333314920
H           -2.15413058896887       -2.75987789309925        0.51611874566165
H            1.46122219000462       -2.92255082043000       -0.24952519192424
25
 energy: 61.235383219552 xtb: 6.6.1 (8d0f1dd)
C            3.61305596660548        0.93175274156213        0.18530129472056
N            2.44812814255451        0.07630258470701        0.06226244812207
C            2.67570363570190       -1.27733568484758       -0.02692744334286
N            1.47629022818541       -1.92743716361344       -0.14008956416657
C            0.45553652115639       -1.00942572731881       -0.06774092928059
C            0.99502947020649        0.28552424550270        0.05085564340759
C            0.09943441049741        1.39859672119655        0.12389752499262
O            0.32311148892505        2.55689159528523        0.37805553369601
N           -1.68013303175458        1.18732901431228       -0.05568963684045
C           -2.75659491559940        2.30559543161949       -0.25316145776416
C           -2.02909151852799       -0.06221621514695        0.26659664529170
O           -3.03401271734998       -0.52161553917239        0.72739900940918
N           -0.88911018575599       -1.18776925330174       -0.02523319378440
C           -1.29924883608674       -2.58673571139416       -0.14837643422796
H            3.50913465361857        1.60531004179941        1.04138500261250
H            4.49320500458633        0.30354656907123        0.36355420920554
H            3.80497296996813        1.50534672756384       -0.73065944741349
H            3.64244344801141       -1.74685727776912       -0.14092009243533
H           -2.28223031839360        3.24703477225527       -0.54200258167679
H           -3.48790566510908        2.10339251047883       -1.06047012093602
H           -3.41470022018520        2.58934797098898        0.59265489037794
H           -0.48916704206656       -3.28485956799938        0.11189581628844
H           -1.59926453180588       -2.80252643284416       -1.18478385147060
H           -2.12920112545737       -2.76681377752222        0.53301932601873
H            1.46682847304786       -2.93334978666927       -0.23378867860905
25
 energy: 66.091481768329 xtb: 6.6.1 (8d0f1dd)
C            3.62129974801324        0.93241229086977        0.15924704618921
N            2.45496449693999        0.06656827794360        0.07040214751466
C            2.68096681358615       -1.28541967428167       -0.02407629008161
N            1.48028156134803       -1.93374728114704       -0.12252100896144
C            0.45910423515522       -1.00854029802177       -0.05825528474302
C            1.00241806852664        0.28344508537649        0.05925190135796
C            0.11793139898013        1.39749555102670        0.14878282940517
O            0.33148867076794        2.55229777319896        0.41044361966170
N           -1.70705868558060        1.19125209122671       -0.03750737209970
C           -2.77609321387463        2.32171545525187       -0.24386687105030
C           -2.05467245700649       -0.06015420946546        0.26281829141854
O           -3.05356745727789       -0.54965122737905        0.70033530184357
N           -0.88608217072537       -1.18835171784478       -0.04630387788704
C           -1.28902898365405       -2.59066855906873       -0.15806275608124
H            3.49162809263620        1.64392375055750        0.96960807766024
H            4.51127617730306        0.31388607352583        0.38698700413877
H            3.81171225796972        1.46071156125128       -0.77285206550548
H            3.64545162722497       -1.76455706761213       -0.11808045807064
H           -2.27372033598495        3.26121131569575       -0.49948141434249
H           -3.49038353716882        2.15219940192917       -1.07812934516137
H           -3.45120570521021        2.60510773100871        0.58661047637091
H           -0.48497286807459       -3.28260102315726        0.09955602024253
H           -1.58772139465466       -2.81610590945546       -1.17792075094512
H           -2.10687074436112       -2.77219171517935        0.52070122393622
H            1.46506871009469       -2.94120888750587       -0.21065253261541
25
 energy: 73.093387976944 xtb: 6.6.1 (8d0f1dd)
C            3.63397533947171        0.92033763606140        0.14789004691559
N            2.46540209339349        0.05304820401949        0.09071688661707
C            2.69042096442324       -1.29346774456836       -0.02922576868818
N            1.49126472617229       -1.94008142640205       -0.10477498635494
C            0.46723587271341       -1.01097832947683       -0.04810551247376
C            1.01629285908135        0.27675092318592        0.06944913057552
C            0.15017643688110        1.39955018479564        0.16920488958539
O            0.35960049671902        2.54872335668123        0.44828666895010
N           -1.74442314004727        1.20281330345506       -0.02917028009896
C           -2.81414902438630        2.34103280399119       -0.23837699690572
C           -2.08276613996433       -0.04799130059616        0.25458629454451
O           -3.07024877611247       -0.57354849695958        0.68092160822987
N           -0.87658509144226       -1.19004111803260       -0.06294992750507
C           -1.27814423016391       -2.59054709922639       -0.16474478472896
H            3.48158221859361        1.69264757317345        0.90591332468017
H            4.51873357426860        0.31357099522728        0.41827136626922
H            3.83163980708775        1.39615547264033       -0.82763695919885
H            3.65189600914851       -1.77576923921640       -0.10843127816202
H           -2.28906848312319        3.27928581397368       -0.45166153438495
H           -3.50417695328565        2.20705532832757       -1.10393159248925
H           -3.51287520698736        2.61319165339084        0.57189062246343
H           -0.46937505870657       -3.28152913600427        0.08212710263144
H           -1.59472448899448       -2.82500791112295       -1.17839849091376
H           -2.08404896944677       -2.77681583794870        0.52794533105469
H            1.47457946967910       -2.94935682062508       -0.19276124841791
25
 energy: 77.028122194012 xtb: 6.6.1 (8d0f1dd)
C            3.63492295301349        0.91837882606031        0.15730786170735
N            2.47910927519036        0.04508903220554        0.10167705848821
C            2.70443257231439       -1.30134483600557       -0.03294812688787
N            1.50359488590277       -1.94786292651792       -0.11176971030939
C            0.47818941555397       -1.02690541032477       -0.04413079928090
C            1.03388078573153        0.26137152007224        0.07122461447730
C            0.17738458042571        1.38731662094616        0.14501436130102
O            0.36870834811896        2.54033602163060        0.42652846467285
N           -1.77735972647905        1.22083921072044       -0.05159211915259
C           -2.84209081839066        2.35804295088846       -0.24004401342171
C           -2.09571568757832       -0.02826069755008        0.24079882301322
O           -3.06691128138830       -0.55845238706543        0.69522506322361
N           -0.86561141249223       -1.19530721807545       -0.04913130234912
C           -1.27931964915808       -2.59205702275972       -0.15774952306966
H            3.51113532361804        1.66581849233162        0.93966685979193
H            4.53206748003292        0.32280185514664        0.38361847856640
H            3.81122377380718        1.41690972726557       -0.80428251887686
H            3.66827117771343       -1.77764078736959       -0.11365235855562
H           -2.31988425122401        3.29546275940200       -0.45052099757741
H           -3.52740068200273        2.21819431442694       -1.10206874585913
H           -3.54006567076950        2.61199590495699        0.58230739556125
H           -0.48484202879199       -3.29587377733389        0.12076275825360
H           -1.56773424821056       -2.83070635457187       -1.18538074701461
H           -2.11445872776574       -2.76426102466953        0.51164337987755
H            1.49068791780106       -2.95485600506595       -0.20547024438479
25
 energy: 83.997716246263 xtb: 6.6.1 (8d0f1dd)
C            3.64493381191651        0.91139476645234        0.16185217641295
N            2.49792341608108        0.03121444741320        0.11056917786716
C            2.72222130760912       -1.31427694162952       -0.03562827532075
N            1.51908639895258       -1.95914439642569       -0.11502131237973
C            0.49194889531632       -1.04016543670525       -0.04237302485212
C            1.05633579878858        0.24703008368377        0.07724019893339
C            0.21167545357577        1.37789247359589        0.12669369491086
O            0.38476485572264        2.52971391349300        0.41643884518342
N           -1.82439803363538        1.23925567043500       -0.06027962118971
C           -2.88678326809062        2.37627482645071       -0.24698317058344
C           -2.11890325735131       -0.00699158500784        0.24866253305249
O           -3.07494685518549       -0.55461277933424        0.71349300361894
N           -0.85219712200089       -1.19691376936935       -0.04043305348251
C           -1.27172867387640       -2.59202031561831       -0.15524181091242
H            3.53564775677647        1.63667880480205        0.96812048200616
H            4.55418004493788        0.32122741372527        0.35245926372814
H            3.79513155266216        1.43798839113245       -0.78920717645417
H            3.68775113357007       -1.78714215666736       -0.11935720228607
H           -2.35900984058846        3.31153293466040       -0.45022845876337
H           -3.57020169911119        2.24844095068403       -1.11004946795975
H           -3.58391624711707        2.63324866394527        0.57676254627799
H           -0.49175593167482       -3.30586016563681        0.15060841803002
H           -1.53504609815006       -2.83723784795832       -1.19082227652305
H           -2.12894285447538       -2.75266769023174        0.49201780888509
H            1.50844376032055       -2.96583146714519       -0.21225938600486
25
 energy: 92.205172375491 xtb: 6.6.1 (8d0f1dd)
C            3.66034715125899        0.90205112524176        0.16426037088323
N            2.52329192130718        0.01099921804262        0.12148382492057
C            2.74534266027206       -1.33166559509001       -0.03621929632006
N            1.53987669308369       -1.97500206524302       -0.11303454050210
C            0.50973586164969       -1.05542234123400       -0.03777313758406
C            1.08572983538016        0.22871939457763        0.08735444026914
C            0.25300160232792        1.36417277357490        0.10540324468686
O            0.40028599845121        2.51153626366701        0.41539694497380
N           -1.89005511755727        1.26466175134962       -0.06817473233552
C           -2.94633839508521        2.40566337702358       -0.25278605234602
C           -2.15795950832783        0.02089834741405        0.24900107876074
O           -3.08628338607316       -0.55553752891236        0.73597011113830
N           -0.83430191475540       -1.19904486477911       -0.03361034581175
C           -1.25795974450375       -2.59376546273431       -0.15389246485890
H            3.56004326930409        1.60666831734066        0.99145881108710
H            4.58255816205868        0.32050338933511        0.32076360886942
H            3.78105295073031        1.45583102256672       -0.77676191958959
H            3.71212537530698       -1.80163472211554       -0.12752745016961
H           -2.40386522474659        3.33441482364106       -0.44969499111025
H           -3.62482125563646        2.29173369279697       -1.12120112065384
H           -3.64416731961952        2.67124537341684        0.56834458760632
H           -0.49328386508766       -3.31787346635377        0.17484704244624
H           -1.49986494226050       -2.84517413105809       -1.19468323930334
H           -2.13336188766866       -2.74338440419172        0.47291472488057
H            1.53108538516366       -2.98156549953282       -0.21480558774264
25
 energy: 99.559143860529 xtb: 6.6.1 (8d0f1dd)
C            3.67978568951898        0.89129290172476        0.16491796929442
N            2.55613289397721       -0.01563471334291        0.13165774113316
C            2.77449855390047       -1.35219536007045       -0.03580009625624
N            1.56735878091073       -1.99510394886806       -0.10819276777456
C            0.53227384323896       -1.07341186591723       -0.03115401066656
C            1.12376608620118        0.20543065596540        0.10054991819989
C            0.30111631559334        1.34383498386110        0.08684723725707
O            0.41638446491448        2.48548812254414        0.41975355511779
N           -1.97738715165008        1.29890061366189       -0.07363861808411
C           -3.01985298330999        2.44546219977476       -0.26060190542145
C           -2.21298045174276        0.06019732460594        0.25047337835501
O           -3.10309445570480       -0.55920852720414        0.75827346642661
N           -0.80958871488443       -1.20336193701391       -0.02766510155081
C           -1.23939025450721       -2.59814253822477       -0.15366117414092
H            3.58316570594717        1.57641733961902        1.00992631374636
H            4.61549938157448        0.32311665977480        0.28945176053020
H            3.76799569360970        1.47025245692992       -0.76574253237692
H            3.74232164356945       -1.81936647884210       -0.13657227173498
H           -2.45255768786583        3.36237440243291       -0.44938314648561
H           -3.69010610710006        2.34670601202631       -1.13649824698569
H           -3.71606577014363        2.72231838775941        0.55803361477723
H           -0.49186269035366       -3.33473965288058        0.19368707808971
H           -1.46503586307509       -2.85451743342925       -1.19759993483427
H           -2.13015276031664       -2.73568667275795        0.45501819617780
H            1.55999014267071       -3.00139414338521       -0.21504651059847
25
 energy: 95.969983098628 xtb: 6.6.1 (8d0f1dd)
C            3.75825708564375        0.85598657037387        0.15804970530967
N            2.70783365087909       -0.13045249140862        0.11999091381542
C            2.92476126983875       -1.44193851050673       -0.04028095568495
N            1.73156036670841       -2.10461259633972       -0.09554391754333
C            0.65674854670585       -1.18594074136378       -0.01422867819998
C            1.29854698966094        0.08836593857854        0.12300307854989
C            0.49429301148328        1.19776131916783        0.10754440145382
O            0.41237852006532        2.35165016449673        0.41597875794351
N           -2.43792976481844        1.49458148336509       -0.03805851751137
C           -3.32484373258122        2.68410662295683       -0.29939413155653
C           -2.55635698180038        0.30794608762631        0.28033003205088
O           -3.20330727153065       -0.54729986676896        0.82303751889265
N           -0.65453296944775       -1.28717886039595       -0.00954914503329
C           -1.14091647658233       -2.66773771958980       -0.15450815937489
H            3.65585694092725        1.46517886850712        1.06179491074803
H            4.74169170017990        0.36116384607736        0.17355241614346
H            3.71922650451856        1.51785085933089       -0.72221163317947
H            3.90017972218933       -1.89458279822423       -0.13493641366764
H           -2.64010879436749        3.52783119600769       -0.45411963380662
H           -3.94912328177269        2.61773731315559       -1.20445297560107
H           -4.01343115795444        2.99577616731195        0.50653157774921
H           -0.47485847827009       -3.46427552058932        0.23967607719189
H           -1.33857227752608       -2.91917000594765       -1.20454465209669
H           -2.07937703700153       -2.72572307412997        0.39767726158055
H            1.72423821982532       -3.10799546294730       -0.20830392597844
25
 energy: 75.759198767957 xtb: 6.6.1 (8d0f1dd)
C            3.77424893493422        0.85336242493912        0.15475686596746
N            2.75417811429416       -0.15665824711852        0.11192462274298
C            2.97075648388815       -1.46341076436090       -0.04121567237444
N            1.79378956269365       -2.13906111720440       -0.09385649869870
C            0.70743568426737       -1.23235238531938       -0.01957430874204
C            1.35878243437805        0.05852488239256        0.12051544610465
C            0.60724694535833        1.16304764302212        0.12716160900578
O            0.38380335743693        2.31696628229950        0.40564743008992
N           -2.65582293244163        1.56695127162186       -0.01820439153211
C           -3.39518101753092        2.76794707870416       -0.31454810999811
C           -2.75571700926579        0.44641978830988        0.32598310941134
O           -3.22040809028519       -0.52552467967750        0.83221824918339
N           -0.55404513889562       -1.37866261953346       -0.02436032983232
C           -1.11098758203884       -2.71815227321945       -0.15720965607713
H            3.67223009817113        1.44040070621139        1.06730295953508
H            4.75477898469641        0.38342787059647        0.14789907685833
H            3.70251170266008        1.52216835689994       -0.70033789650495
H            3.94437188751118       -1.90973462465221       -0.12963443012716
H           -2.67044787617905        3.56803755309705       -0.45614643218827
H           -3.99845918699346        2.68098790476819       -1.22040944739104
H           -4.07042316361245        3.06719452170370        0.49744983355075
H           -0.47405098034513       -3.51676616759259        0.24389544795846
H           -1.31544010978684       -2.94689540544198       -1.20729514320930
H           -2.05752195808879       -2.72172706662562        0.38261782311514
H            1.76658516014672       -3.13746214507612       -0.20754624465303
25
 energy: 64.403875706858 xtb: 6.6.1 (8d0f1dd)
C            3.81672918916802        0.84236280066591        0.15366798655083
N            2.85302438391987       -0.20893480501521        0.09788650812765
C            3.11163977214229       -1.52991255517299       -0.04065234770965
N            1.93714809830114       -2.21345226663923       -0.08642672538774
C            0.84891832967725       -1.33907612141624       -0.03720081964803
C            1.45493719206842       -0.01290361035652        0.09411623295092
C            0.82624464578420        1.13914699334311        0.21921448984591
O            0.30533234720504        2.19776107753911        0.36207129522236
N           -3.06648544114622        1.70884173044939       -0.03101492492414
C           -3.59147039734676        2.95703157160053       -0.34140180363656
C           -3.17350821441829        0.62669435808358        0.51156094219776
O           -3.20731087590223       -0.44371373526849        0.85939077648391
N           -0.38820071320453       -1.56485713515110       -0.07830079559715
C           -1.04822958332637       -2.81708419797649       -0.17164247132309
H            3.71598715544102        1.38218335056512        1.10281059619847
H            4.82273831058739        0.42253718244678        0.08253337150703
H            3.66436981718716        1.55610085794370       -0.66641559551016
H            4.08357755513826       -1.95784849571125       -0.10571273336948
H           -2.75935763529670        3.64512797949366       -0.45328059687080
H           -4.15278936771851        2.89672090953552       -1.27480085227815
H           -4.24429454735255        3.31613469913179        0.45726479316052
H           -0.48912772328143       -3.66203311810607        0.25208849537385
H           -1.26953817168677       -3.03129986325807       -1.22243385527670
H           -1.99786278572945       -2.71368970881946        0.34985875867712
H            1.85974296476239       -3.20680910916328       -0.20614681256995
25
 energy: 60.778021910514 xtb: 6.6.1 (8d0f1dd)
C            3.81379518154997        0.84239592617990        0.15288111157748
N            2.84566365557222       -0.20407026939153        0.08277277729252
C            3.09725820367525       -1.52816807268602       -0.03916000657717
N            1.91478450433055       -2.20281694694917       -0.09688694226088
C            0.83005447043629       -1.32644479213862       -0.03553497896420
C            1.45345044730502       -0.00218072644131        0.09092773594168
C            0.84045192809223        1.15555856837907        0.23441389931987
O            0.24554100185772        2.17205018926266        0.34093397588486
N           -3.03870352456754        1.68764640547935        0.00162110979903
C           -3.57414303951770        2.94916369459768       -0.32824819918388
C           -3.17497197535418        0.60139278579278        0.45225854712194
O           -3.12626663081934       -0.48499845539262        0.85563077707298
N           -0.41798087262492       -1.52862395706888       -0.07219117475300
C           -1.05318722187718       -2.80543113063404       -0.16922599519324
H            3.71211773017163        1.38774796782594        1.09560671355432
H            4.81524666709242        0.41867325377275        0.09255461574303
H            3.67418905719826        1.54856842167023       -0.67028073552834
H            4.06946723086117       -1.95885725599188       -0.09544797150193
H           -2.73972216451730        3.64019890825029       -0.45059078908783
H           -4.12883234218388        2.89078547322504       -1.26823752564893
H           -4.23710505703254        3.32014005995489        0.45754181056586
H           -0.48374543125041       -3.64243484345623        0.25643487411401
H           -1.27133697995073       -3.02591978347611       -1.21908603894483
H           -2.00528447957976       -2.71526466028515        0.35463593024833
H            1.85147394610638       -3.20008197173352       -0.19628960839742
