25
 energy: -42.053534739125 gnorm: 0.007783196525 xtb: 6.6.1 (8d0f1dd)
C            3.34235116083680        2.01522560508796       -0.14642189743471
N            2.91871233617590        0.64481443504771       -0.29742930253421
C            3.78827548658744       -0.28621189858099       -0.51676628215205
N           -2.97213396172607       -4.70603060480081        0.78847544607062
C            1.05153627366052       -0.91148019403982       -0.14400066905385
C            1.57450577718837        0.33778652320850       -0.18464321470030
C            0.47788482266438        1.34508989541577       -0.10961273475546
O            0.70314730063256        2.53387647672244       -0.15711045489180
N           -0.80867076634323        0.84664381778309        0.01102825465880
C           -1.89825685703477        1.81104806999818        0.07666003256899
C           -1.18596702786210       -0.48990645265946        0.07880643312768
O           -2.31632416057898       -0.86140531076270        0.21987849828597
N           -0.09925194407701       -1.34364649382782       -0.03047054595851
C           -3.56611378603407       -3.76568341981130        0.24618914033234
H            3.00478933702986        2.41040438202077        0.81249675497072
H            4.42634063243565        2.07827594555447       -0.20608050461865
H            2.89548267297588        2.63842441351874       -0.92256358189979
H            4.83532001386525       -0.04877689522646       -0.58097842751858
H           -1.46848777682610        2.81091837575862        0.05650627317480
H           -2.56500787525802        1.67191004547835       -0.77431477164212
H           -2.46679699416382        1.66121345755037        0.99401238575536
H           -4.36801276051018       -3.99412053757904       -0.44338806489880
H           -3.38357619330577       -2.69901282290608        0.42465085043263
H           -2.22726007482486       -4.57161548143485        1.46738178753751
H            3.46794587855444       -1.30950278973868       -0.63113378699099
