72
 energy: -99.655909590912 xtb: 6.6.1 (8d0f1dd)
N           -1.47575934852553        3.03546970008767        2.21239986313895
C           -1.56487745660337        2.37860920352747        1.14855592591313
C           -2.81738349569309        2.27581439282417        0.33003032526142
C           -3.33791126542309        0.83919016035294        0.36992343650259
C           -4.25133983550040        0.42397027310387       -0.60022326729150
C           -4.72148133514559       -0.87510883173596       -0.62715113062559
O           -5.61038346777912       -1.37590713740388       -1.53473509236291
C           -6.15093649333858       -0.50610542159091       -2.49523278902479
C           -4.27646558383007       -1.79674002594270        0.34731046068049
O           -4.79466608084409       -3.05546082142213        0.24475602197923
C           -4.46339944032749       -3.99246088399463        1.23614082890284
C           -3.37510708476959       -1.37637694486186        1.30681111978037
C           -2.90874073252475       -0.06722622001027        1.31596647262038
C           -2.42982580424727        2.55577167987505       -1.08670486456816
C           -1.38403243488260        0.51315858675640       -1.92763929070923
C           -0.12211955030203        0.60676860842853       -1.37938215571950
N            0.52156096016573       -0.32831940880642       -0.61633069371459
C            1.90845384152296       -0.19878618776068       -0.23851330163493
C            2.89960480850328       -0.77070059928306       -1.28016278988041
C            4.31932384920847       -0.57587063477165       -0.83030510968046
C            4.97995146375607        0.61299981122492       -1.07280370112110
C            6.28212040366745        0.80633366917525       -0.63428775024433
C            6.94692466817717       -0.19053046614446        0.05604033120966
O            8.22513737420012       -0.11560611536558        0.52122481614737
C            8.96823180096541        1.04787251712175        0.26626538818868
C            6.28136777332912       -1.41046209476128        0.31332385449758
O            7.01406613631600       -2.33880460175192        0.98947869906971
C            6.44196499455482       -3.59359737279700        1.25052277450326
C            4.98144310756071       -1.58124582411355       -0.12620045609734
C           -0.07952696954176       -1.62672860032371       -0.48252100388067
C           -3.97337837339370        3.19859427755891        0.81039771070731
C           -4.47381466192896        2.78399580278303        2.18978304547244
C           -3.58109632010026        4.67075717685879        0.82603056295613
H           -4.57466018512897        1.12556810430658       -1.35069430621588
H           -6.68630012515513        0.32934725834758       -2.03137758036600
H           -6.85169735197575       -1.10791762154322       -3.07252017644138
H           -5.38020240419519       -0.11359803246161       -3.16612674670010
H           -4.75435288916253       -3.64876451755967        2.23510523219040
H           -5.02292661463369       -4.89148902064732        0.98445278986371
H           -3.39353280489269       -4.22615932615504        1.23402308253250
H           -3.02413605087155       -2.05467542229024        2.06820673155258
H           -2.20693685838510        0.23379009296250        2.07728863410147
H           -3.18885177307249        2.96490975414667       -1.70730242389338
H           -1.45255116977658        2.94020097961453       -1.30344694589000
H           -1.97814229152895       -0.38057143338223       -1.80877580377128
H           -1.49844969058478        1.00935461641818       -2.87601108834379
H           -0.73050978197154        1.83414543807653        0.69185069367781
H            0.52084651155371        1.49398801255858       -1.50610662281784
H            2.05877674918839       -0.72630953199630        0.71062884531311
H            2.14778024585176        0.85582800986257       -0.08211921237925
H            2.73442797591314       -0.25748242796072       -2.22829831358321
H            2.69529048105862       -1.83212985660175       -1.42593796742400
H            4.48675786362405        1.40516179184650       -1.61602007700814
H            6.76952796456306        1.74487931286551       -0.84501255443904
H            8.51987651526651        1.92533295111256        0.74367900392678
H            9.07519519312649        1.23245225946917       -0.80792302352901
H            9.95132700501973        0.86523990791278        0.69942413461693
H            7.21354572489132       -4.16290218297215        1.76779816966647
H            5.56136657034996       -3.51180124370226        1.89675621821516
H            6.16944733434433       -4.11252927183581        0.32574777730774
H            4.46358502821203       -2.50921634891549        0.06270446376004
H           -0.16373270061651       -2.13895221783600       -1.44998518411153
H           -1.07725194519278       -1.52219719092277       -0.05270836621324
H            0.52852597652251       -2.23750282841934        0.18211084556732
H           -4.79521101897524        3.06725668299660        0.09382217844358
H           -3.67903413134826        2.89710401015437        2.91895550192367
H           -4.81675252061729        1.75198236734710        2.18973318202185
H           -5.30657381386375        3.42184781468307        2.47570448074928
H           -2.79361678787805        4.83163049630340        1.55477737769602
H           -3.23699032955588        5.00683671829339       -0.14998917549689
H           -4.44558211894587        5.26542989913738        1.11048491398832
H           -0.55873688491894        3.04637351728546        2.65384906148539
