72
 energy: -99.189724457194 gnorm: 0.003709479715 xtb: 6.6.1 (8d0f1dd)
N           -1.59555127675430        2.70465352580799        2.20575146887613
C           -1.58204662775520        2.01254796566145        1.16673967855408
C           -2.76249514800421        1.80485278138371        0.25908458129903
C           -3.24793296426727        0.36675948162058        0.37204101394445
C           -4.20418141356194       -0.10998704998129       -0.52692163517795
C           -4.69206666680462       -1.40312788058931       -0.44723120775228
O           -5.61885863231514       -1.93804646238020       -1.26881801328694
C           -6.22325900576137       -1.12605697114035       -2.24763528836218
C           -4.20600373828634       -2.27299670389858        0.56623076912521
O           -4.73604050136995       -3.51212816593363        0.56797142072330
C           -4.37854590786987       -4.41002683722846        1.59273487051908
C           -3.25504956714045       -1.79437975634339        1.45333042749111
C           -2.78432759881708       -0.49078731522221        1.35739348365256
C           -2.24941680724885        2.06797806838119       -1.18005284266608
C           -1.31224913828952        0.97490626618856       -1.72086714959528
C            0.05816978050897        1.05271796033141       -1.16553038087684
N            0.81549336643985        0.01841916242600       -0.79454969958628
C            2.23789835195197        0.18400755231336       -0.68812412936341
C            2.94955492494270       -0.21287130551692       -2.02603739350970
C            4.28317801355758        0.28632291652081       -2.09222089704156
C            5.46335420962377        0.81503227348767       -2.05369297975721
C            6.36224480797423        1.00664151859487       -0.92832017816777
C            6.29732840054983        0.38580588617330        0.27028648173093
O            7.08541632284366        0.65350346361454        1.32586905196174
C            8.04120834852376        1.68733417401723        1.24246734242462
C            5.33766537538999       -0.71413379098411        0.60714041764865
O            5.23251640184443       -1.64674492953236       -0.38849694319503
C            4.59838073316197       -2.84514478458517       -0.01234992404286
C            4.68175177931383       -0.74597043307048        1.74603493704366
C            0.28697251057253       -1.32151395150533       -0.70412694861515
C           -3.95710135575482        2.75197407863703        0.57836749993457
C           -4.56358530458906        2.44562826252448        1.94547424482839
C           -3.58782869690090        4.23061404069374        0.49748850281525
H           -4.58373279712212        0.54612060566652       -1.29220490178127
H           -6.72792770772931       -0.26505769277317       -1.79903768602581
H           -6.96003043989204       -1.75942381313596       -2.73769743574082
H           -5.49587148194515       -0.77994425657218       -2.98931362129549
H           -4.62677314380172       -4.00982829188281        2.58012440109397
H           -4.96395006635415       -5.30896542439364        1.40992676055744
H           -3.31307720156877       -4.65838787926115        1.55591047681269
H           -2.87870657408723       -2.42719141174483        2.24061048840154
H           -2.06694248891394       -0.14537569663011        2.08570389980499
H           -3.10608265166940        2.14788893870541       -1.84796032073812
H           -1.72675719470840        3.02503174343624       -1.20061324741637
H           -1.75973771990830       -0.00596591364450       -1.56686503168506
H           -1.23048932937206        1.13528602887044       -2.80474807934470
H           -0.67594524062665        1.50846333175714        0.77489265455470
H            0.55648155838571        2.00992257980673       -1.21853179888722
H            2.63258402113648       -0.42492977119954        0.12790162841431
H            2.46670040487626        1.22978167087696       -0.47414318745069
H            2.35268926702596        0.21906357611284       -2.84181196223381
H            2.94875132938742       -1.29966914287943       -2.14051392365618
H            5.88605856677850        1.19663843397643       -2.98664592268219
H            7.16095489091485        1.70739132094107       -1.11283652164333
H            7.57116670761789        2.64730917152197        1.00704004352846
H            8.80728349147454        1.46327066194123        0.49379272287541
H            8.50409822512365        1.73882464633924        2.22543391462499
H            4.56928573693139       -3.47376952286087       -0.90100338354347
H            5.15885713130618       -3.35198023736790        0.77817932849897
H            3.58281452936112       -2.66007105199052        0.35760262451151
H            4.72429809321068       -0.11170666893471        2.60250954105825
H            0.11940131806189       -1.75668270937478       -1.69277366813093
H           -0.65909166276628       -1.31684578190153       -0.15949664994707
H            0.99309301040330       -1.94813293982140       -0.16363714578816
H           -4.72174924595764        2.55293288025103       -0.18117124651722
H           -3.83786972331944        2.64494418970439        2.72727469750342
H           -4.87849178371227        1.40709395348970        2.01199584556491
H           -5.43224092563967        3.07808620373902        2.10848335049901
H           -2.80999999669512        4.46572241674771        1.21745557349018
H           -3.25371972769132        4.51258023622492       -0.49755943278673
H           -4.46250439741734        4.82983484250798        0.73599391926512
H           -0.73090416145675        2.79609727127709        2.72956756448095
