  72
        -99.36393250
 N         -1.3952802630        2.5090232594        2.6328712532
 C         -1.3858003149        1.7348727027        1.6508998097
 C         -2.4369290169        1.7571120617        0.5622944670
 C         -3.2202662214        0.4619743142        0.5822507165
 C         -4.3660045609        0.3366605690       -0.3812177673
 C         -4.8501811381       -1.0612389350       -0.5755146521
 O         -5.6604646165       -1.3913958333       -1.5849371798
 C         -6.0661406688       -0.4207869312       -2.5227261372
 C         -4.5360085619       -2.0710126206        0.3442153077
 O         -5.1173192947       -3.2715692381        0.1176023565
 C         -4.8472165474       -4.3393850181        0.9982385619
 C         -3.6443711580       -1.7916747680        1.3795465076
 C         -2.9711147838       -0.5578804666        1.4473522725
 C         -1.6720252384        1.9088059315       -0.7663865811
 C         -1.6924113015        0.9398828691       -1.9194173755
 C         -0.4121867446        1.1509746173       -1.1741821690
 N          0.1866745067        0.1246742269       -0.3798765778
 C          1.6012795186        0.2938166662       -0.1411580987
 C          2.5029662488       -0.0312610680       -1.3549647917
 C          3.9455141396        0.0149583891       -0.9541403460
 C          4.6819575983        1.1866550376       -1.0532369991
 C          6.0106730022        1.2260810177       -0.6623810011
 C          6.6333216158        0.0926149591       -0.1562553281
 O          7.9142530610        0.0123784603        0.2453352155
 C          8.7435326884        1.1464139535        0.1378028102
 C          5.8835978186       -1.1122098635       -0.0401248486
 O          6.5605525514       -2.1637142060        0.4602919864
 C          5.9082771069       -3.4044522932        0.5901853776
 C          4.5562670011       -1.1257854437       -0.4383398126
 C         -0.2356422514       -1.2400436204       -0.6048182560
 C         -3.4390134399        2.9484929554        0.7276813315
 C         -4.2742833131        2.7884144115        1.9989221583
 C         -2.7844562461        4.3288234892        0.7552476695
 H         -5.2161311419        0.9096847819        0.0321354511
 H         -6.5976190277        0.4057890795       -2.0437629798
 H         -6.7386382474       -0.9371101316       -3.2048809668
 H         -5.2159272032       -0.0274042171       -3.0892006619
 H         -5.1776636955       -4.1135786246        2.0162671557
 H         -5.4177714010       -5.1825154495        0.6140512737
 H         -3.7832113439       -4.5952643508        1.0055048223
 H         -3.4142950008       -2.5432060357        2.1151704870
 H         -2.2158913483       -0.4535078108        2.2108977254
 H         -4.1311635051        0.8089861240       -1.3315823149
 H         -1.6303215061        2.9464002927       -1.0694215094
 H         -2.1706265296       -0.0171869735       -1.7984488924
 H         -1.7753584572        1.3420842020       -2.9192009102
 H         -0.6034920749        0.9903941069        1.4624933781
 H          0.3279915359        1.7798345870       -1.6598128328
 H          1.8815989554       -0.3636709522        0.6868370695
 H          1.7789680254        1.3255167696        0.1726015658
 H          2.3113832077        0.6887112643       -2.1517521971
 H          2.2540525345       -1.0277659247       -1.7221275198
 H          4.2229017589        2.0796156492       -1.4491426092
 H          6.5589801571        2.1487732643       -0.7595737885
 H          8.3771114838        1.9706627818        0.7571393438
 H          8.8318196441        1.4801072987       -0.9003671568
 H          9.7196974320        0.8292898558        0.4996723621
 H          6.6540280464       -4.0861695361        0.9943641162
 H          5.0624877732       -3.3421631596        1.2823968093
 H          5.5623536975       -3.7790706522       -0.3781672734
 H          3.9810915311       -2.0354917791       -0.3641684793
 H         -0.1201617727       -1.5541269281       -1.6489557057
 H         -1.2803555660       -1.3566061497       -0.3177434695
 H          0.3598179423       -1.8973286622        0.0256824678
 H         -4.1037698205        2.9199180104       -0.1428055791
 H         -3.6500795089        2.9733867082        2.8672223398
 H         -4.6991577160        1.7923762368        2.0930108578
 H         -5.0866089402        3.5109569658        1.9975342052
 H         -2.0382575626        4.3795534719        1.5411895757
 H         -2.3234738969        4.5957757047       -0.1920568852
 H         -3.5498867480        5.0718424773        0.9645191600
 H         -0.6319123378        2.4326015146        3.2979287774
