25
 energy: -42.118586023403 gnorm: 0.008387982682 xtb: 6.6.1 (8d0f1dd)
C            3.05087287258418        0.74440130566069        0.07297610967493
N            2.43655222330997       -0.58118833138036       -0.00218679573331
C            3.31256353238133       -1.67044158428662       -0.03785612976623
N            3.05440937487179       -2.88766476360244       -0.07808341727324
C           -0.06510061788926       -0.18928417259768       -0.01493751048373
C            1.14032969743351       -0.74608237408912       -0.01335254217082
C           -0.41173736085083        1.29467626384085       -0.04683432371174
O            0.35771537705069        2.21657831395606       -0.07212483392065
N           -1.76916118904865        1.32407525325233       -0.02425388311469
C           -2.58838351039331        2.51350021899552       -0.02836140329032
C           -2.33112468661991        0.04716984070165        0.00828861105392
O           -3.49391393583142       -0.22448184898175        0.02906452413670
N           -1.26998318728864       -0.84759021239099        0.01373677771492
C           -1.45207232361759       -2.27043401130302        0.03621520345606
H            3.62434458822683        0.82994230623352        0.99682947766901
H            3.71644416783110        0.87866139968158       -0.78066570322365
H            2.28753952539631        1.52156333789470        0.05194310910556
H            4.35759856230398       -1.37152249640577       -0.02164303373568
H           -1.94272880866438        3.38930162203012       -0.03145999881163
H           -3.22735615105172        2.51352075104287       -0.91310850441116
H           -3.22541443239181        2.51736699681151        0.85779369955334
H           -0.99287493668655       -2.70152092011207        0.92781398840929
H           -1.00865775767038       -2.72506522270218       -0.85194129690460
H           -2.52370606824334       -2.46816630634908        0.04835441096674
H            2.12427655895546       -3.28907682429260       -0.09503491728591
