25
 energy: 103.876512837855 xtb: 6.6.1 (8d0f1dd)
C            3.32213486812245        1.18862712317544        0.04350139460287
N            2.37074480270502        0.10495865830027        0.04572677048486
C            2.70610460278683       -1.17895615212624        0.01157886670510
N            1.59139523173627       -1.93433843835397        0.05293190325373
C            0.45889021260064       -1.08557254359154        0.11029295811081
C            1.01298222039323        0.22915781630717        0.10576808505579
C            0.25463226571256        1.49295071188314        0.10714270107583
O            0.82285601109597        2.59613986025832        0.04709400264640
N           -1.04251831595596        1.25569779335016        0.17176039029017
C           -2.02660185489746        2.27548840320307        0.17952648757206
C           -3.68059183663348       -1.14772991359524       -1.38407597943309
O           -4.22178573823613       -0.17206321743897       -1.22113057520316
N           -0.77330962398725       -1.39312475178102        0.14193977069482
C           -1.31532654546024       -2.70654761113233        0.18530686252403
H            3.81238848386116        1.25352559145365        1.01612769671700
H            4.07760296415618        1.02485959039200       -0.72475282955494
H            2.77982470710929        2.11936961238719       -0.14175115367087
H            3.70742408435367       -1.55570145943893       -0.04531206074000
H           -1.61086985929209        3.28856264737960        0.21932548266266
H           -2.64272761035153        2.17499404949031       -0.72174559433138
H           -2.68167222332522        2.11433976709182        1.04206324367125
H           -0.79055385612558       -3.38295882271438        0.87239300942700
H           -1.32938584289027       -3.15782515893661       -0.81492759861450
H           -2.34822147081341       -2.60157388423792        0.51644868860569
H            1.56325186228908       -2.93905020278354        0.02255924831913
