25
 energy: 103.965551249696 xtb: 6.6.1 (8d0f1dd)
C            3.32234110869633        1.19161368959537        0.04900822105676
N            2.37559993185334        0.10298454656847        0.04608360111163
C            2.71055330056566       -1.17789789901400        0.02082183824985
N            1.60121571616482       -1.93839100241270        0.06568394964146
C            0.46678431671147       -1.09228600932475        0.10616993848182
C            1.01710348451978        0.22522617749786        0.09445996278383
C            0.25669641568054        1.48878465390648        0.08660853043660
O            0.81169257197374        2.59879022020846        0.03528913252082
N           -1.03697770128169        1.23170161883116        0.16946479170711
C           -2.02100154480664        2.25548307646591        0.16906078688459
C           -3.75846657939178       -1.11999631792595       -1.36955551919321
O           -4.19592663242228       -0.08769783627115       -1.22189760500379
N           -0.76896959812799       -1.39277612350516        0.09682534260432
C           -1.31887102626515       -2.70315172040175        0.18463795338157
H            3.80907276577996        1.25951807851641        1.02297355039279
H            4.08154505390525        1.03099089045964       -0.71685940460068
H            2.77687894806247        2.12066061255046       -0.13646739203767
H            3.71325359173124       -1.55105803488825       -0.03178383230736
H           -1.60371157011649        3.26798969475681        0.20584264068784
H           -2.63223223693403        2.16830364745591       -0.73214789839315
H           -2.68548799527922        2.10380198933209        1.02451820598587
H           -0.81042664287473       -3.36394362472718        0.89139051282626
H           -1.31403123852867       -3.18542416421424       -0.79388257749756
H           -2.35635632190749       -2.60466360427967        0.49582085154636
H            1.58254259589741       -2.94297511359728        0.03421307831099
