25
 energy: 20.736380581115 xtb: 6.6.1 (8d0f1dd)
C            3.26334115227724        1.18465265733120        0.07952960987143
N            2.27964885902101        0.13104541610381        0.06011450780694
C            2.59499422438870       -1.20601561668608        0.09449514160834
N            1.42182392355054       -1.93235597986195        0.02010257693628
C            0.34241954470298       -1.08541791144827       -0.03194663656258
C            0.88407614356201        0.19300430359969        0.00044785478139
C            0.04089039005803        1.32691755913803       -0.03709835353633
O            0.47406395519015        2.48034901395581        0.06918752533387
N           -1.37609874195791        0.98881377428191       -0.16478794774073
C           -2.19421043513220        2.17952432437514        0.03569438983594
C           -2.02757594195506       -0.21668506012879       -0.58016733973306
O           -3.19055442681050       -0.36788960191041       -0.87600330378249
N           -1.02088255688384       -1.32461423666079       -0.09186279390533
C           -1.45160883797108       -2.68945695129749        0.07233913425793
H            3.77249499992531        1.24617590772107        1.04778766750241
H            4.03733204824177        1.01710211066790       -0.68069617696779
H            2.74667991064610        2.12332305190425       -0.11142508365111
H            3.59240939054878       -1.58415947353086        0.00263537707600
H           -1.57601255912379        3.07790653113662        0.11569347036921
H           -2.82778093842650        2.26275724246779       -0.83530003946681
H           -2.80482995451126        2.08193858943812        0.93110911945071
H           -0.87468096760289       -3.20560579302012        0.86203160232658
H           -1.35214158963162       -3.25674156971227       -0.85157193504436
H           -2.50625624391313       -2.66159918222420        0.33741728823900
H            1.47236185335264       -2.93657519307346        0.04312049165626
