25
 energy: 91.060347205137 xtb: 6.6.1 (8d0f1dd)
C            3.25116539518381        1.17173860608231        0.08747347879065
N            2.25749925320591        0.11126402951556        0.05790883526939
C            2.59459390639701       -1.16457884670588        0.06379274158491
N            1.48806795970331       -1.93836705172573        0.02686628076483
C            0.33706800010631       -1.11014482602097        0.03034531273313
C            0.89019984220693        0.19184134365449        0.02846992812442
C            0.02846936852574        1.38028314597391        0.00103043812341
O            0.56309503225203        2.48558234945098        0.11995103325628
N           -1.30362553361135        1.09129816626615       -0.09482483292167
C           -2.15120999493715        2.22816414354948        0.10360275980309
C           -2.29355712946777       -0.25969792550219       -1.10694829544444
O           -3.44450666407276       -0.22732709257187       -1.22188337296228
N           -0.92697747593045       -1.40137526102008        0.07101508534682
C           -1.40370648074194       -2.73072307246291        0.15382987414048
H            3.75309819282261        1.22908478062428        1.06126996652227
H            4.02838906124290        0.99112579958728       -0.66196032588589
H            2.76370325999157        2.12647073931449       -0.11077073397077
H            3.60154349497915       -1.52472998232933       -0.00781065017086
H           -1.54771212072586        3.12785298383441        0.19411107048951
H           -2.81365487128354        2.32914225291156       -0.75642339952886
H           -2.76501133375309        2.09375618010390        0.99350850456023
H           -0.73917098449161       -3.28456437813724        0.82226667391344
H           -1.45467169682053       -3.25218620588088       -0.80366327041945
H           -2.42331772883879       -2.69801018377338        0.54013834439626
H            1.55078158949026       -2.94215501754289        0.05728707472327
