72
 energy: -99.338123516454 gnorm: 0.007057599950 xtb: 6.6.1 (8d0f1dd)
N           -2.07384621329772        2.73521077076893        2.27115849228860
C           -1.94336974519778        2.11081941290978        1.19659722021288
C           -3.04718363395699        1.90216213106170        0.19286077785801
C           -3.52340531841337        0.46124498872527        0.25586778613443
C           -4.57513220067950        0.03823586897262       -0.73245508567542
C           -5.02044978824731       -1.38314335418067       -0.56896830881326
O           -5.96770614985227       -1.87703465524297       -1.34022800980197
C           -6.59593364865910       -1.25422832419504       -2.29076747481970
C           -4.48400041738184       -2.24004982742112        0.42251393069287
O           -5.00498747173635       -3.48640862611053        0.43936552743560
C           -4.58474959922623       -4.38766976052061        1.43916824384137
C           -3.50870160621576       -1.75958244258261        1.27276031419935
C           -3.06417110880237       -0.41744195075312        1.17833407150868
C           -2.42621472347066        2.19481936689388       -1.19940285609913
C           -1.44193934045790        1.12126025766745       -1.69803319498988
C           -0.13006875856634        1.14100917242561       -1.00928477310732
N            0.53841826152150        0.06026438874765       -0.60717394034094
C            1.92358043681674        0.16002776005509       -0.21453276859359
C            2.86969690768238       -0.28563739565767       -1.34666694708792
C            4.29900361737895       -0.10641898249442       -0.91929849013706
C            4.95300968539112        1.09566989284718       -1.12986203829328
C            6.26231260345621        1.27420605721184       -0.71004592533019
C            6.94231633173000        0.25207093506056       -0.06471909926346
O            8.21119940424328        0.31338838657747        0.38395975650637
C            8.94994487492678        1.49712022561912        0.18968281672572
C            6.27820797615501       -0.98472941144950        0.15876327134655
O            7.01307476575076       -1.92495340716260        0.78876902312044
C            6.45015117083911       -3.19254428260517        1.02602317755986
C            4.96942289482203       -1.13960491688521       -0.26825339718226
C           -0.03732753527246       -1.26148099729845       -0.66124315373308
C           -4.26103031113194        2.85397066066959        0.43280503822600
C           -4.99990003151253        2.49982291921906        1.72157809952938
C           -3.87817295259602        4.33113406282689        0.45270204131367
H           -4.21017462700871        0.17266931064012       -1.76504601089347
H           -5.44485323924417        0.69569651431337       -0.63767166365236
H           -7.34524798062465       -1.83094575632029       -2.79701056603184
H           -6.41586603001936       -0.22654895132854       -2.55123684625191
H           -4.79160647160535       -3.99859644972359        2.44006374146250
H           -5.16509772857177       -5.29360987807522        1.27665906101023
H           -3.51910456931254       -4.61845932820540        1.34796169934109
H           -3.08853962137084       -2.38443858786159        2.04163917602525
H           -2.33676306426791       -0.09697364317789        1.90973556444556
H           -3.23110809320431        2.28899495217428       -1.92834942784210
H           -1.90896088693037        3.15381245131285       -1.15767822664498
H           -1.89955072854876        0.13629579039519       -1.63314007149820
H           -1.25650497551547        1.33423505963953       -2.75964868668863
H           -0.98710380791093        1.67449357858016        0.84749796737488
H            0.40778577193207        2.07661177144615       -0.98191741585475
H            2.09372441251263       -0.46343738950863        0.66745054090261
H            2.15131240136071        1.19447248790635        0.04995059086666
H            2.66592426805385        0.31994305540200       -2.23148239351034
H            2.67872647046862       -1.33119709277578       -1.59141106193069
H            4.44848801657941        1.90401991221519       -1.63713843418200
H            6.74762366880348        2.21813162675823       -0.89601246900519
H            8.48621868468837        2.34731376981607        0.69930754780310
H            9.06584802569077        1.72698021230623       -0.87380859736265
H            9.92831257250653        1.30534439912578        0.62593309293102
H            7.22944814402187       -3.77060934619080        1.51880643260848
H            5.57787553199775       -3.12814330505946        1.68472305391166
H            6.16836276220616       -3.68838073250887        0.09178023039044
H            4.45861038020831       -2.07666966383581       -0.11030397480096
H           -0.14561841507785       -1.60699981362912       -1.69231992288966
H           -1.01867939444464       -1.26976947886011       -0.18147379990625
H            0.61121080247857       -1.95453188776924       -0.13110547563185
H           -4.94386556362389        2.71068873286480       -0.41281544559549
H           -4.35644759210213        2.68469796637216        2.57506056136423
H           -5.30304203352341        1.45575064559539        1.73680255812665
H           -5.88890781409872        3.11820051742042        1.81536743228502
H           -3.18741784256599        4.53531437872142        1.26430636953395
H           -3.43380996196784        4.64792717105507       -0.48703526947077
H           -4.77424986255767        4.92524579358315        0.61313618044877
H           -1.25248438840659        2.83510180598979        2.85971467615812
