  25
        -42.07675015
 C          3.0779714655       -0.1511341495       -1.1555623750
 N          2.3389344399        0.2932181063        0.0168763432
 C          2.8950454869        0.9699586891        0.9224562926
 N          1.0025511567       -2.3545434297        0.0628970261
 C          0.3716239824       -1.2392326473       -0.0034714521
 C          0.9351720170        0.0720687394        0.0416228240
 C          0.1154905008        1.2468508314        0.2267143896
 O          0.5854135423        2.3423509769        0.4743550522
 N         -1.2421214381        1.0390701593        0.0651420945
 C         -2.1304342906        2.1823036549        0.1078256669
 C         -1.8393567013       -0.2019477214       -0.1079822360
 O         -3.0318266786       -0.3039014975       -0.2368066348
 N         -1.0025258828       -1.3052086819       -0.0977805630
 C         -1.6076073799       -2.6155713777       -0.1808081846
 H          4.1384013815       -0.2116844593       -0.9175352306
 H          2.7109828787       -1.1121558934       -1.5087720114
 H          2.9401831869        0.5839096429       -1.9522253443
 H          2.4751770233        1.4334060630        1.7952721157
 H         -1.5277356887        3.0839105142        0.2011310397
 H         -2.7328936828        2.2135474418       -0.8019734165
 H         -2.8134469721        2.0967008000        0.9557330036
 H         -1.2654515741       -3.2301741164        0.6534343575
 H         -1.3069958018       -3.1095908521       -1.1068113584
 H         -2.6901868214       -2.5018856794       -0.1562776206
 H          2.0003416766       -2.3972225126        0.1902744455
