25
 energy: 31.463065649886 xtb: 6.6.1 (8d0f1dd)
C            3.82714296519061        2.72937060742042        0.30453290014031
N            2.26901887217450       -0.54381552933302       -0.10609379838617
C            2.37274814790873       -1.83015416992297       -0.06704325068580
N            1.14342595537327       -2.45744771704367       -0.01360452146540
C            0.22718754658439       -1.45377699769273       -0.04036298894295
C            0.93703343462838       -0.26332127760301       -0.07980850904818
C            0.25103596548891        1.00110598788750       -0.08900210528396
O            0.76368655985820        2.09388895420031       -0.10484179088606
N           -1.14023645957969        0.85442739046632       -0.05605148646567
C           -1.93456101169593        2.07357740771603       -0.04040439950097
C           -1.85501204565942       -0.31913700272074       -0.05081408212430
O           -3.06674864395204       -0.32163381205263       -0.03917259947891
N           -1.13150864175664       -1.51025290032559       -0.05951064582612
C           -1.87237164910185       -2.75074743492244       -0.08411402332117
H            4.17700776148575        2.94676724537070        1.28754992272985
H            4.45860961370467        2.68159671756108       -0.54796260546373
H            2.79589546509332        2.68964466048124        0.09108597690089
H            3.31909197808810       -2.33204919307140       -0.05222632608515
H           -1.26124378543262        2.90795052639940       -0.19915100067783
H           -2.65761909816793        2.04498255626596       -0.85014914093081
H           -2.43576876980553        2.16986015719043        0.91550346436096
H           -1.62777001331436       -3.36853927719353        0.78100706373908
H           -1.67100246867267       -3.31017960301601       -0.99921109865182
H           -2.92888448941830       -2.48290194463536       -0.04742829059142
H            1.00271126659201       -3.45611073168414        0.01007286298700
