25
 energy: -4.357697929937 xtb: 6.6.1 (8d0f1dd)
C            3.22029735123451        1.27069775842883        0.09840305549181
N            2.35794912361196        0.09547898300994        0.03558695204138
C            2.62624491150612       -1.27949317272161        0.03176241058001
N            1.42450956820797       -1.97378249249501       -0.00444851494363
C            0.41026200340570       -1.09212306058047       -0.01640814827167
C            0.95552370094753        0.18545946730862        0.00536115036459
C            0.14438441188760        1.33728990582338       -0.01327986480210
O            0.53136721753912        2.50796812532007       -0.02667635646311
N           -1.24662055390011        1.02075112278268       -0.02984575367745
C           -2.17261038915514        2.13708464045854       -0.04252023995606
C           -1.81454108370722       -0.21530569491970       -0.04727827017584
O           -3.01728901068069       -0.38817743245378       -0.06845184811896
N           -0.94003287925705       -1.32006595780535       -0.04133587904349
C           -1.51022467795228       -2.64749018954897       -0.06135238664494
H            3.71544246924037        1.38784383541868        1.07081092807979
H            4.00972944584947        1.21267832439373       -0.66250937410084
H            2.60565942370784        2.15238266631866       -0.07467780174432
H            3.58379698057020       -1.73615307645131        0.04085852477572
H           -1.58998212277079        3.05332206959154       -0.03306816679650
H           -2.76938530752943        2.09225359277504       -0.94308112535037
H           -2.80090601074257        2.09844615508785        0.84056772175153
H           -1.22459383417187       -3.21012709144306        0.83034875917446
H           -1.20416829305943       -3.19112784314603       -0.95792111243581
H           -2.59393433779642       -2.52567059372588       -0.07339915837712
H            1.32749255125277       -2.97635947711594       -0.01563004455980
