72
 energy: 23.890104294640 xtb: 6.6.1 (8d0f1dd)
N           -1.58952658794998        2.92550891858333        2.39836371121364
C           -1.63689948061682        2.08581149916305        1.46715605963504
C           -2.70331860386298        2.03420024981482        0.40319555014120
C           -3.36297357329339        0.66111598490546        0.41420070481578
C           -4.24996331796030        0.30454964469175       -0.60497331241298
C           -4.85838547875874       -0.93658539468442       -0.63500896505377
O           -5.73336490105923       -1.36462703948827       -1.58948519843964
C           -6.09526804503912       -0.48798918925175       -2.62486788612345
C           -4.58021338957048       -1.87510133010029        0.38450974842503
O           -5.19790864213984       -3.08284929589353        0.25273461941923
C           -4.94670325579101       -4.07553399049310        1.21225535053154
C           -3.73706151492514       -1.50562539142733        1.41539774078355
C           -3.14348615694164       -0.24875708054493        1.43115485904076
C           -1.97898508538397        2.28018461015675       -0.96057445924150
C           -1.41240480384189        1.05618334212020       -1.71494854393209
C           -0.58224474473955        0.09592635419825       -0.92431319055451
N           -0.79723135320245       -1.14205927815274       -0.95694477283745
C            2.88156218757637        0.24783117392463       -0.28998307824393
C            3.08621602934115       -0.39269853547578       -1.61692700475619
C            4.30812634290878       -0.11823355462341       -0.77948934909898
C            5.17483133856982        0.99164564578154       -1.12204271123235
C            6.48639628554445        1.00491803269395       -0.75445772746279
C            7.07294660243159       -0.07647315044776       -0.09401636568897
O            8.38234678726405       -0.15748985140072        0.27481197926899
C            9.23470523238654        0.91319301557295       -0.03514375727516
C            6.27475019168202       -1.21334380095162        0.23078182302910
O            6.94836942294830       -2.20948651226541        0.87274340261719
C            6.25206912887507       -3.37842149480451        1.21594733954545
C            4.96006865863484       -1.24257529079183       -0.11381692275053
C           -0.09031479389902       -1.98434308606552       -0.03410371013200
C           -3.81182773958393        3.10696161200749        0.62727067170462
C           -4.53957798539555        2.88926879040084        1.95594852221450
C           -3.28257145055661        4.53948350032239        0.57026958404946
H           -4.46666139912036        1.01733810226050       -1.38477606497043
H           -6.58485191091526        0.41352072907865       -2.24085453776583
H           -6.80287374249623       -1.04237421439493       -3.24059300478206
H           -5.23538343042124       -0.19871233159129       -3.23712174351911
H           -5.28585147946094       -3.77406010027155        2.20986995606533
H           -5.51203092406739       -4.94769844241792        0.88372978983648
H           -3.88295818456131       -4.33080280061150        1.25939633216800
H           -3.53035829022845       -2.18684648672911        2.22720825216089
H           -2.52619756528836        0.00955501817486        2.27736784454826
H           -2.70893117111555        2.73534977105456       -1.64098330228794
H           -1.19037920815110        3.01968290764187       -0.79465565365467
H           -2.22189570632024        0.49033324510315       -2.15238539991967
H           -0.80725453121141        1.44072092893408       -2.54345776328059
H           -0.87536753596741        1.30118357990562        1.35363867250651
H            0.12583162609363        0.54586924757173       -0.21278191489474
H            2.49430341360444       -0.34384691818606        0.53295528615149
H            2.60187483698804        1.29955722492349       -0.25359233810122
H            2.96374674845151        0.20565858789782       -2.50231316498934
H            2.81747413741563       -1.42792159147658       -1.75412309980061
H            4.73278567955840        1.82880456753672       -1.63653286030411
H            7.07873383184388        1.86931822010440       -1.00337887779072
H            8.92145262392863        1.83602824301501        0.46481084089035
H            9.30371636275567        1.09626849569138       -1.11350250926825
H           10.21185583169254        0.61379391286278        0.33934722046246
H            6.98834810468414       -4.02455627591821        1.69161353116882
H            5.43960669989685       -3.17456045404729        1.92263744255093
H            5.84520263099962       -3.88370795102136        0.33300061848318
H            4.33677367515606       -2.08966079944084        0.11570928200313
H            0.57622205257641       -2.69426814830548       -0.53393013331753
H           -0.86875565134124       -2.57174876602605        0.44878857078612
H            0.43256457807708       -1.38225650962387        0.72214748191601
H           -4.54725182210961        2.98062117636890       -0.17721916175367
H           -3.85455060076572        3.04448421961575        2.78304743829587
H           -4.94905809242096        1.88431189504672        2.01896494190185
H           -5.35962931666517        3.59705756636235        2.05241862820819
H           -2.53987532131109        4.68990087979669        1.34855986395686
H           -2.84042949831153        4.76777737533868       -0.39612015207757
H           -4.10423721531105        5.23349367248373        0.73908054333269
H           -0.78659945948145        2.84045300575680        3.02031213647681
