72
 energy: -3.917383966947 xtb: 6.6.1 (8d0f1dd)
N           -1.50396817753661        2.79614499177008        2.25237008218969
C           -1.56051498239344        2.13834335950425        1.18509510023646
C           -2.74479376620271        2.05703964045565        0.26474501542702
C           -3.32478556575134        0.65138555602491        0.33717516818726
C           -4.30069193723524        0.25361238594766       -0.57882290793589
C           -4.85102777771500       -1.01289365438562       -0.54239879578408
O           -5.81080463142697       -1.47781789496937       -1.39111825785977
C           -6.36476995798037       -0.59588851114708       -2.33243833873796
C           -4.41930993302690       -1.93507361107897        0.43643743140983
O           -5.01440325419538       -3.16041264791277        0.39148656228591
C           -4.69384233863679       -4.09808753009698        1.38620913818523
C           -3.45881730777855       -1.53841731562880        1.34628270615285
C           -2.91843147897156       -0.25817829107178        1.29575074897262
C           -2.17721852699904        2.29808358621626       -1.15832476924075
C           -1.29877185026607        1.14756745937409       -1.68404800870584
C           -0.06977924850192        0.99986753707150       -0.86777692044861
N            0.59508453907030       -0.16367791661986       -0.53052861034275
C            1.99853353864884       -0.05012414999299       -0.22834442240417
C            2.94851919105135       -0.52829512675001       -1.32648203206338
C            4.36285389830954       -0.39957433200494       -0.84963001312351
C            5.08417350553278        0.76037636383024       -1.05241456340051
C            6.39844753166620        0.86224573071493       -0.61905211778622
C            7.00573803577579       -0.19225369231305        0.03821281052635
O            8.28958699368689       -0.20700766171057        0.49620533948004
C            9.08823004177782        0.92682817954603        0.28192949443781
C            6.26974986657318       -1.37575866845811        0.27410458266847
O            6.95271570614284       -2.36036827952028        0.92268954393615
C            6.30831068845577       -3.58563234342008        1.15947228801971
C            4.96179954907337       -1.45851431538584       -0.16175821585944
C           -0.03752929678873       -1.42817083431214       -0.52638250238511
C           -3.86422804330751        3.08205538491233        0.58979335978181
C           -4.50246637439876        2.78879010901475        1.94578519333280
C           -3.38124988251994        4.53055031201907        0.55165521930323
H           -4.63950348894220        0.95309966476042       -1.32504405349158
H           -6.82176493795455        0.27550967912651       -1.85131228896919
H           -7.13561551307607       -1.16874126424593       -2.84560061005852
H           -5.62065720100895       -0.25990543388531       -3.06269940659404
H           -4.92766300037077       -3.72117072997921        2.38740940425609
H           -5.31515471702667       -4.96726868708370        1.17624181859283
H           -3.63902455247922       -4.39060153659542        1.34434506189422
H           -3.12336983350657       -2.21591968786488        2.11546726662503
H           -2.18861947705630        0.02343619540379        2.03859214433772
H           -3.00068975432558        2.44324288691882       -1.85810589494608
H           -1.58866797407918        3.21798346854059       -1.14863105962799
H           -1.87356791968497        0.22629161223784       -1.68954225556782
H           -1.02462768490851        1.40126224872188       -2.72209037333818
H           -0.70474884104970        1.59910962350673        0.71712489235780
H            0.60603157296928        1.81553765947176       -0.88534404280377
H            2.18587769112380       -0.63167219931495        0.69085432042489
H            2.27070764286007        0.99268273895543       -0.00221138738450
H            2.78633979384150        0.08309519240074       -2.21393531224149
H            2.71059293194384       -1.56428303661911       -1.56074080956212
H            4.63264560811699        1.59411352802566       -1.56899408946773
H            6.94299043535490        1.77163063818119       -0.81520368698191
H            8.67906697625511        1.81228987711073        0.78061698008289
H            9.21321988012769        1.13694805781764       -0.78587048122616
H           10.05608870323840        0.68411156329414        0.71754349409544
H            7.04715130045810       -4.21097259949448        1.65828972692099
H            5.43770740655992       -3.46736129014679        1.81376625583819
H            5.99793293140174       -4.06913448827457        0.22656353462368
H            4.39192436877013       -2.36016308436144        0.00858385180743
H           -0.16088699177854       -1.83721743873213       -1.53317572072954
H           -1.01486193892254       -1.37597071677174       -0.03878560969604
H            0.60769937214102       -2.08847889634829        0.05789163172625
H           -4.63416749069563        2.96457598021039       -0.18246324486318
H           -3.76904964775247        2.92077179384176        2.73436001168171
H           -4.88368975566241        1.77125484745819        1.98392156470134
H           -5.32933214454862        3.47407979451874        2.11853455856854
H           -2.59289352453999        4.68446713082607        1.28105354998037
H           -3.01571254348132        4.80865114929607       -0.43364464879383
H           -4.20919613932845        5.19161558587762        0.79816225062236
H           -0.61779368996615        2.77592107026002        2.75411694982330
