72
 energy: 46.186248238672 xtb: 6.6.1 (8d0f1dd)
N           -1.57285151415137        2.93893303186949        2.36236106058156
C           -1.64866058733711        2.07449128036005        1.45740726545197
C           -2.72587404056138        2.02721421630734        0.40225248802547
C           -3.38114828596242        0.65736666990245        0.41731503524477
C           -4.27180021087703        0.29500829119243       -0.59639628982932
C           -4.86358426562777       -0.95384025100208       -0.61703456901251
O           -5.75108305260691       -1.38983671923934       -1.55507693505462
C           -6.15412778348984       -0.50678827842289       -2.56753317452900
C           -4.55864721487912       -1.88959451534489        0.39570690586060
O           -5.16446421494038       -3.10432682135618        0.27784273423016
C           -4.89043059812806       -4.08335236461432        1.24734117267639
C           -3.70214960522882       -1.51515348628323        1.41213175130832
C           -3.12506293602424       -0.25232484328290        1.42243594038371
C           -2.02074677737359        2.27187160651392       -0.97078112427487
C           -1.42280164391599        1.04219596581403       -1.67830976370843
C           -0.52766891091092        0.22051788932749       -0.78613405043270
N           -0.33204025688602       -1.00931140987195       -1.04469554044946
C            2.47347375596903        0.18898409822085       -0.38244266534460
C            3.06833251092289       -0.42010045042301       -1.57980025830679
C            4.39091192547164       -0.20601684435826       -0.91231850792936
C            5.14560635720391        0.94566327469240       -1.13484075489768
C            6.46659827579215        0.99019000517968       -0.73639736203701
C            7.05744406847477       -0.08456198217170       -0.08576980362249
O            8.36410402039144       -0.16800904359817        0.29178231120328
C            9.20624279793920        0.92097418510243        0.03660216967635
C            6.27093936558920       -1.21789103706527        0.23617660195093
O            6.94171129574438       -2.21471720962942        0.87705028335257
C            6.25619040829993       -3.39678911364408        1.20703749832745
C            4.95163351943575       -1.25211835776077       -0.14519026805293
C            0.07271406687770       -1.94502811507857       -0.04304968218146
C           -3.82414496473585        3.10239115376518        0.62921350501407
C           -4.54101543088825        2.87412335739222        1.95880504122954
C           -3.29629735245827        4.53344370834586        0.56666608213993
H           -4.51183259676070        1.00409046852654       -1.37180123788431
H           -6.63864084885661        0.38566552267405       -2.15611164846368
H           -6.87460622275837       -1.06041469293963       -3.16823180477608
H           -5.31304522750718       -0.20628930551964       -3.20216710877092
H           -5.21523987170208       -3.76715237721650        2.24411264972301
H           -5.46407443911924       -4.95991911290150        0.95136694136622
H           -3.82682029713627       -4.34362948144877        1.27383664019977
H           -3.47527064597658       -2.19665831105129        2.21616980851155
H           -2.47296698486176        0.01393922398525        2.23985988045537
H           -2.74621738833576        2.75086763157918       -1.64682187752354
H           -1.21152844141812        2.98480024926322       -0.80458511398716
H           -2.22497050313982        0.37578626479694       -2.04032722456149
H           -0.84795209381644        1.38939986359551       -2.53379507273895
H           -0.87249793433230        1.32461273188580        1.28331693578358
H           -0.08668491656992        0.72481470141681        0.05324129340760
H            2.31752799178538       -0.42246358283648        0.47103829007626
H            2.30326243553672        1.22763130184058       -0.35097100225091
H            2.92191382705516        0.18980111296197       -2.46044419729953
H            2.88102651995880       -1.46756415945827       -1.80431879422103
H            4.70466122685314        1.78842762756671       -1.64208002807402
H            7.04835814050129        1.86122273700113       -0.98723515536387
H            8.86255035904450        1.82925042676478        0.54436427830679
H            9.29295881358456        1.11371744928934       -1.03839006694903
H           10.17909772440567        0.63504030388373        0.43391325170426
H            6.99455138111410       -4.04011474289647        1.68402241044736
H            5.43944804838673       -3.20732501100938        1.91105342126847
H            5.85863040845629       -3.90387178739196        0.32060386754008
H            4.33984518497915       -2.10979714921401        0.09753352639315
H            0.54311957163547       -2.79555731205595       -0.54170159433468
H           -0.86590200487180       -2.29464445105440        0.40145124377554
H            0.62340898563169       -1.57747034765720        0.84839992480397
H           -4.55854978472166        2.97870612997982       -0.17516204519276
H           -3.84492228683896        3.02536753853683        2.77743474524755
H           -4.94159737602302        1.86421575280337        2.01564993818649
H           -5.36032889004297        3.58342113448294        2.06346580497940
H           -2.55128528688607        4.67808054322284        1.33759145639733
H           -2.85667835306368        4.76118062509248       -0.40015328905377
H           -4.11193217963509        5.23156913113499        0.73609413143800
H           -0.75726587777972        2.84831604576489        2.96356550239693
