72
 energy: 54.063756697098 xtb: 6.6.1 (8d0f1dd)
N           -1.58507518448143        2.91375759700237        2.36369279706554
C           -1.64252618446781        2.08515157649423        1.42305277424885
C           -2.73325628945174        2.03433753713944        0.38375145465659
C           -3.37515342346114        0.65872311680732        0.40570354202809
C           -4.27856374575408        0.29021126043036       -0.59344466793093
C           -4.86145895041242       -0.96279043600738       -0.60648201636955
O           -5.76185855192212       -1.40453432177548       -1.53080621264834
C           -6.18773588926683       -0.52079277989361       -2.53260672738661
C           -4.53678633191564       -1.89624521470357        0.40156976855266
O           -5.14180623078547       -3.11406340955514        0.29499816055212
C           -4.85970750748975       -4.08586358575550        1.26847155748030
C           -3.66426544143523       -1.51759518080100        1.40311417058466
C           -3.09366327612551       -0.25144526280879        1.40380275226273
C           -2.04839352989163        2.27845575528621       -0.99678853317352
C           -1.42173161144427        1.04555500522312       -1.67647850227578
C           -0.44135565693206        0.31452306281507       -0.81537184057417
N           -0.18926145502410       -0.90710613939238       -1.05309265076828
C            2.34754835131070        0.15338478237187       -0.39563060968024
C            3.04444200995355       -0.42434778157991       -1.54677487483085
C            4.40504849783560       -0.24187741794872       -0.92621013452627
C            5.13875922029894        0.91627814950442       -1.12089372067335
C            6.46074661433958        0.97110489249579       -0.71420551003396
C            7.05161082704551       -0.10203086526280       -0.06671957360610
O            8.35573048427959       -0.17539808087737        0.32417020445721
C            9.18984027651637        0.92123831249729        0.07477656925001
C            6.27186597188019       -1.24126712982389        0.24235387425176
O            6.94405595895485       -2.23698986288748        0.88340750043486
C            6.26395146956141       -3.42589579488123        1.19908735594920
C            4.95321993324849       -1.28182489315940       -0.15407529097779
C            0.07180855501204       -1.91508889370648       -0.10195486209177
C           -3.83389558261769        3.10162149295203        0.62464616803377
C           -4.53831989039081        2.86172495265844        1.95792445474661
C           -3.30976940761611        4.53381978942735        0.56602359861725
H           -4.53264557465244        0.99713519334356       -1.36577998937552
H           -6.66743891793611        0.36869749719612       -2.10944703391232
H           -6.91725510254334       -1.07619245530802       -3.12047777546362
H           -5.36056433469606       -0.21413023276728       -3.18201001014934
H           -5.17074359626285       -3.75970338112338        2.26635364721810
H           -5.44104639593936       -4.96224845837861        0.98635966661300
H           -3.79702820432843       -4.35017526977262        1.28431333946565
H           -3.42043245270808       -2.19943114590505        2.20179276280757
H           -2.42891179117659        0.01828111634544        2.20942671398138
H           -2.79695668910993        2.71425604560346       -1.67722618306874
H           -1.26684729506432        3.02619371642333       -0.85443139157010
H           -2.18578174727224        0.33577159677768       -1.99846454989101
H           -0.89049134826372        1.39620337943940       -2.55619798700664
H           -0.84464685554420        1.37331270187617        1.20469680790541
H            0.02040544935728        0.91017996638483       -0.05163374684805
H            2.30591382478256       -0.46303498821841        0.47831937368610
H            2.21428900732283        1.19065246458758       -0.37164755159870
H            2.90193955847115        0.18671763977412       -2.42816148088355
H            2.85303737614941       -1.47379599298799       -1.77077848917199
H            4.69546042917571        1.76110018888069       -1.62362105494945
H            7.03670765806177        1.84808594040260       -0.95717939849265
H            8.83491611815906        1.82616558861616        0.58090087048887
H            9.28174796918355        1.11683060851151       -0.99929661618309
H           10.16259762051624        0.64364007405040        0.47801531116417
H            7.00161689587997       -4.06689676624935        1.67987905707038
H            5.43852265495819       -3.24702825090106        1.89555664457119
H            5.87920189014311       -3.92989372696017        0.30535494210933
H            4.34684028363900       -2.14654735725435        0.08266840875707
H            0.38599211785838       -2.79073344096926       -0.68572862965635
H           -0.90788898762763       -2.14916322763884        0.34424126372394
H            0.69856547742893       -1.74823080125227        0.81602301245473
H           -4.57219056766698        2.98022436789104       -0.17620255338240
H           -3.83415032172535        3.01019039268095        2.76976805994491
H           -4.93423732758045        1.85006745625932        2.01085098360955
H           -5.35896984577977        3.56745523378110        2.07520222891857
H           -2.55641934281541        4.67561432437866        1.32954519257379
H           -2.88183078239992        4.76759228838291       -0.40455086496868
H           -4.12553718925065        5.22848555650689        0.74886129184354
H           -0.74451500906257        2.83382770109261        2.93316945466659
