72
 energy: 38.771920296877 xtb: 6.6.1 (8d0f1dd)
N           -1.56992910760281        2.94549731518762        2.35975432081430
C           -1.65025479075169        2.06514416991021        1.47065860803923
C           -2.72099952203491        2.02275947455376        0.40954674063372
C           -3.38131885032358        0.65608159934652        0.41976896358537
C           -4.26735784134132        0.29666684531213       -0.59890579668927
C           -4.86449786296215       -0.94971237326421       -0.62255605697078
O           -5.74540396825210       -1.38275329663710       -1.56739150778372
C           -6.13664618256463       -0.49913974207615       -2.58452452044851
C           -4.56968796675229       -1.88645556901962        0.39267740071906
O           -5.17614916649512       -3.09982051234768        0.26946780835452
C           -4.90621511273065       -4.08244325142156        1.23696322644283
C           -3.72097529591463       -1.51377715510630        1.41625309994482
C           -3.14013549417503       -0.25276687341300        1.43029523692277
C           -2.00577180121336        2.26900160756873       -0.95929929752158
C           -1.42075492227461        1.04803685378793       -1.68998321322976
C           -0.56579466852462        0.17864657642522       -0.80999339262824
N           -0.39487085619731       -1.05436290936335       -1.05313721226055
C            2.64193788991461        0.19703615388301       -0.35654543709706
C            3.07089238854142       -0.43173663467327       -1.61580493092633
C            4.31705715682685       -0.15547774314729       -0.84305712053693
C            5.14492101502368        0.96744781413896       -1.13705624661395
C            6.46278619594722        0.99789933654344       -0.75480495944752
C            7.05867552460016       -0.07609738054040       -0.09592626991675
O            8.36777686066785       -0.16431531937929        0.27529014767294
C            9.21393155791265        0.92054272557346        0.01773716901931
C            6.26359514180530       -1.20815495719957        0.22920642413795
O            6.93926927024706       -2.20451276468468        0.87037777195176
C            6.25276478115441       -3.38232767740851        1.21087976035269
C            4.94481320052545       -1.23692726934595       -0.12802907469973
C            0.06691806650483       -1.94746899581207       -0.02374099400097
C           -3.81846444257299        3.10218182108258        0.63059138006650
C           -4.54121739626671        2.87972022802212        1.95865490179841
C           -3.28905862216840        4.53283655311245        0.56587208344853
H           -4.50123236895439        1.00710501056969       -1.37521167002554
H           -6.62311365723559        0.39467699979466       -2.17837591118107
H           -6.85235018002139       -1.05153248745519       -3.19200127631979
H           -5.28835158381134       -0.20171347343457       -3.21116690806903
H           -5.23802014189954       -3.77155426378589        2.23317126958416
H           -5.47588275829538       -4.95896885840198        0.93374909349172
H           -3.84218460627188       -4.34088018565730        1.26899509825487
H           -3.50316329022010       -2.19469319025612        2.22344309079502
H           -2.49521164720713        0.01159099169830        2.25432772627573
H           -2.72041144144841        2.76692517661356       -1.63144827351038
H           -1.18529086350018        2.96569318368053       -0.78031546434475
H           -2.23609876759284        0.40592745153109       -2.06402624813008
H           -0.83196200987335        1.40511517080631       -2.53356397861639
H           -0.88469340230498        1.29888541262062        1.31508974866036
H           -0.13267046629494        0.63106733377894        0.06146521693210
H            2.34905509914947       -0.41066368281981        0.47335198911103
H            2.35582828368319        1.22396656597200       -0.33374697337043
H            2.92824264178728        0.18528798923744       -2.48328448351799
H            2.88688867350148       -1.47692046573420       -1.81505980371105
H            4.70853292969153        1.80681401482850       -1.65142168410838
H            7.05170471920538        1.86517756339498       -1.00709062779860
H            8.87623499760122        1.83060677988662        0.52650485200163
H            9.29835224382247        1.11254165339213       -1.05765538617978
H           10.18704393410064        0.63049198845672        0.41189134533474
H            6.99138619055934       -4.02670841704559        1.68631126375370
H            5.44031050984228       -3.18715532971065        1.91883534193397
H            5.84818120345965       -3.89150683568892        0.32881607909717
H            4.33466547984979       -2.09402754750753        0.11099048797465
H            0.62084762997593       -2.77153468629564       -0.46119248347988
H           -0.88180256079384       -2.32442718952667        0.35437675124755
H            0.55966899531809       -1.49762697857935        0.85977217128558
H           -4.55155592238053        2.97784419132531       -0.17507099779495
H           -3.84886003193506        3.03271784611449        2.78022265774144
H           -4.94433403952524        1.87077720393209        2.01801561028723
H           -5.35981741313940        3.59074716884643        2.05719527214706
H           -2.54845073115653        4.67912316237238        1.34065762116196
H           -2.84347890452915        4.75756428987725       -0.39905106989547
H           -4.10454391715710        5.23277711669469        0.72846649809878
H           -0.76749142725592        2.85584584648757        2.97849953564385
