72
 energy: 21.360392302906 xtb: 6.6.1 (8d0f1dd)
N           -1.57418593466098        2.92684453682899        2.36911846889337
C           -1.63233900769764        2.06592071240671        1.45955117533105
C           -2.71259588740401        2.02473400202609        0.40933239441565
C           -3.37658148547320        0.65839733347232        0.41940423700584
C           -4.25741915461066        0.30395960390845       -0.60368271344087
C           -4.85829759127795       -0.93884571735793       -0.63335747482483
O           -5.73315482670463       -1.36833881766558       -1.58579870599153
C           -6.10606731637411       -0.48906215626151       -2.61411805760116
C           -4.57747580939359       -1.87601104223108        0.38516236831885
O           -5.19168602479932       -3.08518922073579        0.25596533498161
C           -4.93242449929318       -4.07450522924270        1.21840960173919
C           -3.73936811625068       -1.50603059626276        1.41787662510510
C           -3.15391110441974       -0.24802131920165        1.43716730663617
C           -1.98996830632807        2.27297829256167       -0.94797342799926
C           -1.47316820011887        1.03669501681594       -1.70445220744680
C           -0.64428711076164        0.10351826910843       -0.88965779234177
N           -0.96117501544618       -1.10328119651863       -0.77303002275213
C            2.87653910876104        0.24508807527455       -0.30630557744950
C            3.08631054238259       -0.39116640081269       -1.63510265940123
C            4.30129275945979       -0.10973051753364       -0.76407312993086
C            5.17063954503880        1.00582028940362       -1.10901588924021
C            6.48895758649009        1.01205215254331       -0.76632891191983
C            7.07307567924810       -0.07132397373971       -0.10274592630476
O            8.38105581452461       -0.16199197129564        0.27043703252329
C            9.23245792755467        0.91498074369009       -0.01073967854052
C            6.27187859293635       -1.20646407425696        0.22858771977567
O            6.95187016239873       -2.20617864495146        0.86257543607873
C            6.25364655351326       -3.37171918767802        1.21793938971459
C            4.95276218225659       -1.23543689404822       -0.09360719059662
C           -0.17124715488908       -2.01288898518693       -0.00739217159180
C           -3.80949071079632        3.10419363015125        0.62979259428102
C           -4.53925136527762        2.88769505443965        1.95436052229721
C           -3.27971919449593        4.53650373920104        0.56823718834650
H           -4.47452062462052        1.01735941686281       -1.38244412739015
H           -6.59655048269348        0.40948300114739       -2.22332342196773
H           -6.81425125503363       -1.04548814561056       -3.22686757735693
H           -5.24978949254182       -0.19828973330173       -3.23278100648434
H           -5.27027196908268       -3.77043290952613        2.21503290825696
H           -5.50309851362203       -4.94518193042222        0.89949575558800
H           -3.86876440856615       -4.33605935794396        1.25915316375084
H           -3.52983066507817       -2.18742880102882        2.22704412792565
H           -2.51991252173034        0.01056406026582        2.27141362483575
H           -2.67916802610887        2.78116837645290       -1.62342464633279
H           -1.15781392396509        2.95838416175681       -0.75945884774669
H           -2.28770183500096        0.47065346572598       -2.15053639389966
H           -0.84012452449340        1.41668257979392       -2.51221207414583
H           -0.87162358903980        1.28540030393828        1.32265480118899
H            0.25050250350082        0.55313443964028       -0.42352257306797
H            2.49538756893832       -0.34832135689914        0.50806778545644
H            2.65148890081684        1.29952832202968       -0.25254208221198
H            2.95330418886724        0.21566227272360       -2.51818674297384
H            2.79068469907472       -1.42220709345043       -1.75880440965822
H            4.73279813122306        1.84844705767925       -1.62019304118842
H            7.08791034733906        1.87064677501968       -1.02766710600890
H            8.90777069086754        1.83192650685348        0.49447837333961
H            9.30596810997651        1.10004938480134       -1.08819611238198
H           10.20765159793427        0.61844671462372        0.37184160424558
H            6.98923924120296       -4.01905760556006        1.69342147616343
H            5.44471249357757       -3.16466727523344        1.92754764341256
H            5.84076510121681       -3.88009541129640        0.33972913957291
H            4.33209599935365       -2.08170561457692        0.15192769383546
H            0.35777382599803       -2.69523099238901       -0.68278674187133
H           -0.85921176643913       -2.61475492900873        0.58414077985061
H            0.54231451561344       -1.50903286325942        0.66923017708856
H           -4.53912932062119        2.97797261687909       -0.17924344363230
H           -3.85443461141011        3.04143460898514        2.78188882698822
H           -4.94530701104187        1.88080927391347        2.01557711817563
H           -5.35837573749738        3.59741332754352        2.04364959984386
H           -2.54094621726246        4.68972191934879        1.34691246907060
H           -2.83221963933388        4.76328344725662       -0.39596860560122
H           -4.10128790002681        5.23095705588375        0.72856681906571
H           -0.77455210528511        2.85607119930308        2.99543321083259
