72
 energy: 6.584783843283 xtb: 6.6.1 (8d0f1dd)
N           -1.52327790175358        2.83252202964175        2.27989777334075
C           -1.57839567558856        2.11928261895524        1.24841742164948
C           -2.74309198620945        2.05365971761468        0.29828191759268
C           -3.34010966015754        0.65680476317578        0.35669531990428
C           -4.29692187268832        0.26513976648408       -0.58135239979534
C           -4.85448606058202       -0.99887235746857       -0.55961555860554
O           -5.79826384530021       -1.45989633162728       -1.43075359167425
C           -6.31780678040023       -0.57544033366759       -2.38799896610594
C           -4.45133140631481       -1.92423518231212        0.42700794682644
O           -5.04860009923093       -3.14983222118921        0.36395497296640
C           -4.73893488952498       -4.09523240822138        1.35412778204724
C           -3.51434844733018       -1.53133739377841        1.36272660411400
C           -2.96649801926035       -0.25427983713594        1.32602903779953
C           -2.15162519517707        2.29382576967014       -1.11518363897796
C           -1.35551886803165        1.10764120756326       -1.69479691358575
C           -0.19130243627577        0.81085440884794       -0.82640478989191
N            0.53632995110373       -0.35179349515378       -0.58723402587949
C            1.96659043960928       -0.09633358326818       -0.33916827547196
C            2.96876498824641       -0.51227948358267       -1.39476534775803
C            4.36561991529676       -0.34831115327848       -0.86366534686217
C            5.09608681616861        0.80354880954206       -1.06798222914559
C            6.41555877910481        0.89150076585433       -0.64300893519506
C            7.01866991423167       -0.16740640346548        0.01053963218451
O            8.31023872166218       -0.20000959249001        0.44979988441640
C            9.11751250816387        0.92481274839699        0.22566744692873
C            6.26932894636966       -1.33844109822819        0.26570947371695
O            6.95167652713077       -2.32618242344464        0.91128428067013
C            6.29623326728502       -3.54193238163596        1.17022544026228
C            4.95666951086994       -1.40639990886679       -0.15984638716195
C           -0.01146003070363       -1.61549352412194       -0.39026258486861
C           -3.85751344232268        3.08854080827727        0.59994019362434
C           -4.51325415451322        2.80923878863081        1.94968279754997
C           -3.36255347215684        4.53213029570554        0.55616035266154
H           -4.61143572439638        0.96543339693287       -1.33705248360976
H           -6.77990128397701        0.30123843265599       -1.92118636147773
H           -7.07826817978330       -1.14282321620302       -2.92245808053049
H           -5.54976729919469       -0.24638133389106       -3.09610498050468
H           -4.99406079474042       -3.73052269256487        2.35462194524057
H           -5.34972039850075       -4.96717632183987        1.12518214948999
H           -3.68138975229692       -4.37920195354901        1.32796339701817
H           -3.20350962900449       -2.21151556348758        2.13978910776580
H           -2.25334177299933        0.02401341531809        2.08534560351172
H           -2.96011261147897        2.52866596133068       -1.81154497328523
H           -1.49811017784707        3.16900015563523       -1.06847370636272
H           -1.97792812117089        0.22990845211559       -1.78875315084558
H           -1.00864932035222        1.43335304804168       -2.68642007883099
H           -0.73838673694833        1.52456560233598        0.84012360666242
H            0.52325751289577        1.56466279927216       -0.75142597823722
H            2.25601160792883       -0.58913423037339        0.62433215049168
H            2.19212645220534        0.98188158408594       -0.16251130593479
H            2.81845498287103        0.10683192366337       -2.27623273208810
H            2.76102643947459       -1.54928184616165       -1.63661382379167
H            4.64942528511543        1.64217408223648       -1.58003898630651
H            6.96992293772816        1.79191342997671       -0.85217460634935
H            8.72191746466327        1.81556851531862        0.72610411043495
H            9.23230363020870        1.13109409464846       -0.84410517399971
H           10.08716806082654        0.67346568210923        0.65233595256301
H            7.03411463843542       -4.17188705777753        1.66473520118718
H            5.43697481954259       -3.40668415560405        1.83588846508897
H            5.96465508130956       -4.03159145754344        0.24760601458322
H            4.37858785558727       -2.30074511354774        0.02937024312841
H           -0.06250949208335       -2.16499948498840       -1.33351551134143
H           -1.00192801780348       -1.57572089619547        0.07026255674670
H            0.67445893487108       -2.12025009344305        0.31959158123419
H           -4.61868909054658        2.97240030127132       -0.18145180398478
H           -3.78499689192092        2.94689856676971        2.74177262912210
H           -4.89714392441377        1.79287221437941        1.99166129531158
H           -5.33931638727154        3.49949705832165        2.10947723491344
H           -2.58209353830500        4.67940428650388        1.29356291859123
H           -2.97993203159524        4.79627410974501       -0.42623726548441
H           -4.18676410937708        5.20432175796293        0.78560526851501
H           -0.65132694083474        2.78667190653920        2.80410931344777
