72
 energy: 22.255240198639 xtb: 6.6.1 (8d0f1dd)
N           -1.58574923983679        2.92859444494172        2.38791425368189
C           -1.63828678697625        2.07666371369043        1.46905112279525
C           -2.70596244818244        2.02911025367770        0.40736706559333
C           -3.36753660508890        0.65995883727334        0.41560837736196
C           -4.25348218884169        0.30421827634435       -0.60385009819749
C           -4.85634121938743       -0.93847313377770       -0.62993223477447
O           -5.73804804749406       -1.36736525421111       -1.57781490143600
C           -6.11408738786667       -0.49084898305980       -2.60957517249720
C           -4.56912018954427       -1.87702217589459        0.38718260144112
O           -5.18421399255858       -3.08556115410441        0.25812265988793
C           -4.93119638429753       -4.07538228819102        1.22083074445621
C           -3.72128661367299       -1.50750613405878        1.41361465391550
C           -3.13773134042531       -0.24778722280448        1.43069999430666
C           -1.97650456353636        2.27497102264987       -0.95054460690529
C           -1.43863871460713        1.04524931066137       -1.71141945357044
C           -0.60629631178738        0.09538399163231       -0.91424994017891
N           -0.87690286850467       -1.12915664972807       -0.87481030706452
C            2.90391313244696        0.25011744912120       -0.28929248575396
C            3.08991042556018       -0.38882759719901       -1.62514380540668
C            4.31133785782939       -0.11424577478530       -0.77444440680934
C            5.17585323540435        1.00194937319054       -1.11614788029554
C            6.49074198187353        1.01065308075793       -0.75870998535741
C            7.07415421812107       -0.07360362643612       -0.09491523422855
O            8.38083771860460       -0.15921723636093        0.28143364579783
C            9.23270011944778        0.91434257957438       -0.01608279552570
C            6.27454568623706       -1.20920248350252        0.23243766195268
O            6.94998349224146       -2.20755385635677        0.87196429304700
C            6.25512973729565       -3.38139014352395        1.21233712246564
C            4.95773477256183       -1.23928877350000       -0.10287001396117
C           -0.12505841762337       -1.99678580369980       -0.01977991613537
C           -3.80964574201843        3.10516774466414        0.62856896398107
C           -4.53748057771805        2.88492192301936        1.95589071762488
C           -3.28337201755554        4.53893343933711        0.57089447523123
H           -4.47685535958257        1.01637513888508       -1.38263644484542
H           -6.60154141068441        0.40932128832705       -2.21947450340705
H           -6.82682783919458       -1.04752449897950       -3.21754477335145
H           -5.26272125635140       -0.19948553353062       -3.23354900160791
H           -5.26221026219105       -3.76743032606118        2.21922150511140
H           -5.50373874350823       -4.94612227494950        0.90160396358790
H           -3.86842436838489       -4.33587351755374        1.25985332564113
H           -3.50397828394849       -2.18834919033666        2.22247907382022
H           -2.50481376558371        0.00946391243781        2.26637734942053
H           -2.68658409836047        2.74991604982890       -1.63010185535767
H           -1.17057602541536        2.99411542671956       -0.77014681859511
H           -2.25389374887004        0.48407669708635       -2.15567682181945
H           -0.82105892685491        1.42796321601900       -2.53012405005147
H           -0.86040034996221        1.32006381984678        1.32099074304475
H            0.19245355917117        0.55402596910698       -0.30630566881384
H            2.51360489589992       -0.34208218711533        0.53012421820946
H            2.65458298127078        1.30667132557531       -0.24410699369189
H            2.95572955168690        0.21602841469376       -2.50601152998673
H            2.80108172254995       -1.41932847701248       -1.74651879034323
H            4.73357869751056        1.84044617449764       -1.63153194806096
H            7.08620257404078        1.87313686053757       -1.01261703431103
H            8.91218091279310        1.83443224357468        0.48516022347327
H            9.30378332725639        1.09792185135316       -1.09385530345138
H           10.20922849486458        0.61793096145635        0.36252757082154
H            6.99050344865520       -4.02832124511529        1.68907073779869
H            5.44022821103336       -3.18244862301281        1.91744197476965
H            5.85104422402278       -3.88749938454392        0.32831374042454
H            4.33346835566898       -2.08477639580528        0.13316341820160
H            0.47598578215904       -2.70068668908817       -0.60867359855538
H           -0.86437169479485       -2.58311247625509        0.52302553029648
H            0.49987854383126       -1.44041555021189        0.70319316816074
H           -4.54279973146590        2.98000049600754       -0.17762097584582
H           -3.85021357107416        3.03636746420203        2.78209499009357
H           -4.94612364193344        1.87906683161354        2.01658305726544
H           -5.35650077272830        3.59491791959767        2.05134513393630
H           -2.54113062297409        4.69018862000178        1.34847659620388
H           -2.84255150801357        4.76946768804362       -0.39557731205618
H           -4.10381037989254        5.23315803509786        0.73783105023844
H           -0.78335895234097        2.84936409880926        3.01073064623637
