72
 energy: -5.374093398265 xtb: 6.6.1 (8d0f1dd)
N           -1.49813607407510        2.78412290379414        2.24247924582564
C           -1.55502738608729        2.14505629906520        1.16373275830766
C           -2.74575081644561        2.05828201461883        0.25359857784278
C           -3.31993332630715        0.64955513866399        0.33075591512860
C           -4.30205779830812        0.24969692912819       -0.57790706950800
C           -4.85013295955160       -1.01752682641698       -0.53639056164902
O           -5.81537879425814       -1.48351929467140       -1.37753541556118
C           -6.38072255030889       -0.60250277592267       -2.31344754924846
C           -4.40895217145504       -1.93852595685615        0.43989508821454
O           -5.00314529712707       -3.16383685305614        0.40111798215242
C           -4.67828773659731       -4.09906053424976        1.39699076858835
C           -3.44069408643968       -1.54071425431656        1.34100627125403
C           -2.90275830802902       -0.25949669839845        1.28568682450212
C           -2.18640052947163        2.30026389148940       -1.17241475112897
C           -1.28127894079968        1.16254572350351       -1.67579691334886
C           -0.03282682805615        1.06314707120141       -0.88118732462198
N            0.61429263955233       -0.10477547025386       -0.54449334418550
C            2.00182071432724       -0.04063950568084       -0.19321750052487
C            2.94167436451593       -0.53407962147573       -1.30271216535701
C            4.36098042520963       -0.41641363249058       -0.84338422889322
C            5.07980302676426        0.74581737596519       -1.04695720601864
C            6.39235756934610        0.85237475562082       -0.61096620481803
C            7.00102819655758       -0.20056153633633        0.04766496026880
O            8.28207625709213       -0.20907892387310        0.51214829892619
C            9.07806206367884        0.92759124409165        0.30105256846889
C            6.26965578587875       -1.38824449018611        0.27697067420627
O            6.95263277579265       -2.37170747082573        0.92688624027462
C            6.31232355062372       -3.60013027551334        1.15649526339409
C            4.96329859328370       -1.47607540643840       -0.16225895261122
C           -0.04497405421861       -1.36549372584853       -0.57417483570717
C           -3.86619821044582        3.07986646523460        0.58674985570262
C           -4.49786827779942        2.78178776544249        1.94501517115508
C           -3.38702854613433        4.53001025914597        0.55007602449426
H           -4.64897086579597        0.94879347726287       -1.32100963241477
H           -6.83594471180794        0.26716684358686       -1.82761751564848
H           -7.15513130190427       -1.17707214772569       -2.81928535410633
H           -5.64492908509106       -0.26435334982255       -3.05125858983990
H           -4.90474638732353       -3.71851291790899        2.39856438463338
H           -5.30295127475546       -4.96732000779516        1.19333287404077
H           -3.62440491477486       -4.39435215544943        1.34953773415091
H           -3.09682763447364       -2.21720201801310        2.10751240815587
H           -2.16715531094195        0.02303927393178        2.02285681974715
H           -3.01390201832943        2.41426122626666       -1.87275540507465
H           -1.62029981702642        3.23397433601189       -1.17555088696853
H           -1.83908848719789        0.22861582660329       -1.65696212553009
H           -1.01666704378916        1.38916254753776       -2.71950857911139
H           -0.69466191972934        1.62416334843799        0.67733759792439
H            0.62669537852892        1.90157069982606       -0.91606079156454
H            2.15347508263271       -0.64832876544750        0.70953146278205
H            2.28782352490883        0.98953501346997        0.05283365220053
H            2.77617231772514        0.07580374631150       -2.19162631362707
H            2.69470934398336       -1.56935975874280       -1.53630957874253
H            4.62686584620549        1.57788684605408       -1.56528395831435
H            6.93336192539545        1.76498729523423       -0.80226407265545
H            8.66462548388106        1.81156638458111        0.79881627750278
H            9.20693712475701        1.13865817235720       -0.76606299004287
H           10.04515326576537        0.68769622044857        0.73992579710381
H            7.05165846976154       -4.22352207857042        1.65699966573099
H            5.43791291757448       -3.48772618703251        1.80686706339799
H            6.00950928590575       -4.08179904811384        0.22025495714796
H            4.39639931429787       -2.38034122709698        0.00130196803845
H           -0.19243822784677       -1.72943668999783       -1.59573020483303
H           -1.01652901727402       -1.30923216328361       -0.07474855743782
H            0.58470939476491       -2.07055881021289       -0.03317158328279
H           -4.63902834420180        2.96099575578500       -0.18198331351554
H           -3.76249169963150        2.91130637152710        2.73233306268006
H           -4.87845644035179        1.76390054981441        1.98166945708651
H           -5.32464108069192        3.46560214419801        2.12242834410060
H           -2.59574309540224        4.68606849718528        1.27654254047748
H           -3.02767682103355        4.81306789111512       -0.43620922403459
H           -4.21595482250685        5.18719995796229        0.80284021241650
H           -0.60751078452686        2.77262323058001        2.73639465070364
