72
 energy: 2.366742886610 xtb: 6.6.1 (8d0f1dd)
N           -1.51706472231345        2.82057452597331        2.27107414699855
C           -1.57240396717415        2.12555900709321        1.22739368274455
C           -2.74371197921779        2.05478351973414        0.28720367539900
C           -3.33507455715109        0.65505815880191        0.35019523086905
C           -4.29841575996695        0.26133654797205       -0.58033729652468
C           -4.85341754472486       -1.00358287975651       -0.55380944977159
O           -5.80245220310221       -1.46603387374338       -1.41757571370961
C           -6.33345277066745       -0.58224357757914       -2.36946774318749
C           -4.44069102711018       -1.92788056439506        0.43023454067262
O           -5.03709631076994       -3.15350343981565        0.37309281578896
C           -4.72381420250885       -4.09628783259987        1.36484361473303
C           -3.49585740014068       -1.53358381428378        1.35734876900144
C           -2.95048126879251       -0.25546381677474        1.31600619312923
C           -2.16010160348813        2.29512854996455       -1.12913990598063
C           -1.33515542534358        1.12058124461685       -1.69229137800987
C           -0.14773939257388        0.87228059164341       -0.83916849605294
N            0.55539011266772       -0.28968851301929       -0.54037435932869
C            1.97874442079446       -0.08617235416637       -0.29729946795031
C            2.96152861112998       -0.51906843380236       -1.37170390361189
C            4.36486250928799       -0.36602067319369       -0.85975199634765
C            5.09205635676261        0.78879447524650       -1.06318716379761
C            6.40971813063455        0.88165822156897       -0.63506789676205
C            7.01436197477890       -0.17563131760819        0.01988485671790
O            8.30343936975467       -0.20229006864501        0.46552990112541
C            9.10778743498320        0.92551030928338        0.24448492795574
C            6.26957256932353       -1.35093714173877        0.26862487380684
O            6.95222867907461       -2.33752134389558        0.91535169555675
C            6.30027034541054       -3.55646762374788        1.16663131011143
C            4.95862128355898       -1.42403423069135       -0.16058791250575
C           -0.02178868612053       -1.55636864498647       -0.43411227298056
C           -3.85990439478254        3.08641980715554        0.59640333613941
C           -4.50971778021205        2.80239214012567        1.94822438734302
C           -3.36887050693856        4.53157561302334        0.55469434590411
H           -4.62087552628493        0.96126926208410       -1.33310751028276
H           -6.79373353904557        0.29268436719471       -1.89773971007564
H           -7.09741742963223       -1.15136025290909       -2.89695251946956
H           -5.57322864470848       -0.25080134234404       -3.08489061896788
H           -4.97187246988317       -3.72740605225605        2.36557094894387
H           -5.33810999137433       -4.96737403870836        1.14226851591429
H           -3.66713436172840       -4.38302939473924        1.33344375944710
H           -3.17688277696030       -2.21289911491965        2.13181119753423
H           -2.23177332588291        0.02402985027207        2.06977046307758
H           -2.97401334121427        2.50051589832393       -1.82719280329734
H           -1.52811460900757        3.18590932639396       -1.09484303715908
H           -1.94250203656247        0.22761658352952       -1.75649244903295
H           -1.01927992323742        1.42996437170009       -2.70162874824655
H           -0.72654593638439        1.54973132020738        0.79841084840659
H            0.55916122634022        1.64351578385014       -0.80444051835022
H            2.23890502116704       -0.60608366873852        0.65108087916446
H            2.22187075314603        0.98501468818313       -0.10981374471866
H            2.80672041086892        0.09821683425952       -2.25481582002866
H            2.74454785535087       -1.55549164677443       -1.61169276517783
H            4.64362906881999        1.62597289401672       -1.57635974291302
H            6.96065945742649        1.78526331017697       -0.83960456604553
H            8.70769807897273        1.81454987925220        0.74430973107205
H            9.22579347503740        1.13298140726361       -0.82469241367825
H           10.07687935310306        0.67699060214866        0.67404195065755
H            7.03839959026083       -4.18502826089773        1.66248427922175
H            5.43710478076709       -3.42696219485029        1.82844304757411
H            5.97571479463210       -4.04386189666059        0.24040204403318
H            4.38316899804486       -2.32071126275028        0.02281446458620
H           -0.09688047938707       -2.05489477477759       -1.40419907199647
H           -1.00780209855298       -1.51122993056549        0.03475493927211
H            0.65351345707581       -2.11662297211460        0.23276879152258
H           -4.62406411332554        2.97027899474519       -0.18206441613344
H           -3.77943905057194        2.93829820885791        2.73881180764892
H           -4.89259254486427        1.78560875147911        1.98888088903129
H           -5.33608415988949        3.49095094269715        2.11256837689695
H           -2.58573756420705        4.68088806912805        1.28939116522051
H           -2.99187918411712        4.80027578237474       -0.42871456637649
H           -4.19432497775083        5.20020692765036        0.78981701454208
H           -0.64024093829917        2.78322264115894        2.78802672204464
