72
 energy: 28.708516708678 xtb: 6.6.1 (8d0f1dd)
N           -1.57845270914072        2.94938985206492        2.37431466686005
C           -1.64564269182277        2.08844900693510        1.46571574891752
C           -2.71131550462904        2.03206203089083        0.40432640223462
C           -3.37006487086277        0.65903370119662        0.41685800769891
C           -4.25492817169725        0.30426669909705       -0.60532136975049
C           -4.86539173078435       -0.93567985386591       -0.64000134849874
O           -5.72594631220822       -1.36321513210549       -1.60678629603844
C           -6.08317664382009       -0.48219186691496       -2.63907744982993
C           -4.60099352468525       -1.87411730006244        0.38207881031460
O           -5.21091561110883       -3.08450707689055        0.24473310321883
C           -4.95322601351944       -4.07594613412020        1.20755352816054
C           -3.77360903973174       -1.50290646981798        1.42420530717188
C           -3.17380395509859       -0.24833125328272        1.44347769222192
C           -1.98090078922129        2.28107161852575       -0.95605450876461
C           -1.40165707335334        1.06241927859204       -1.71135521535201
C           -0.61009424567727        0.10477314986192       -0.88208488865616
N           -0.61767136131757       -1.14574923718677       -1.07033974924591
C            2.79150772274674        0.23519814341780       -0.31486285362892
C            3.06977251874187       -0.40921364675037       -1.61494324257375
C            4.29524979426402       -0.13048007172158       -0.79342023580617
C            5.15890706888587        0.97574289951519       -1.12658349251955
C            6.47275757488542        1.00612016045737       -0.76060768422539
C            7.06809582831512       -0.06934745705713       -0.10862646726492
O            8.38010996175365       -0.15786609868428        0.24768628464684
C            9.23464007471075        0.91583536574700       -0.03799631724592
C            6.26910684757872       -1.20145812108934        0.22480959358588
O            6.94644863205664       -2.19389905167079        0.87059534860685
C            6.24534985507491       -3.35334550399193        1.22605648791028
C            4.95450993557674       -1.24679135903849       -0.12828207530118
C           -0.00948059386503       -1.95033284052666       -0.03567953307613
C           -3.81289964699121        3.10729263309954        0.62876534382326
C           -4.54446225485760        2.89864988271739        1.95630790076603
C           -3.27560689053315        4.53630945804181        0.56668891559769
H           -4.47204630620378        1.01723338050654       -1.38451965468182
H           -6.57777758541672        0.41579954490401       -2.25181669197957
H           -6.78275022442730       -1.03462076921381       -3.26511523159747
H           -5.21597631469501       -0.19292567471860       -3.24449765106024
H           -5.30812759146806       -3.77718793480227        2.19964901999143
H           -5.51133333027681       -4.95269816516402        0.88432024315788
H           -3.88828389191404       -4.32899924351793        1.25793963183735
H           -3.58352266672718       -2.18421816773827        2.23965958267695
H           -2.56217925351991        0.00778370905452        2.29510635232340
H           -2.68416289561720        2.77644448418775       -1.62740077939921
H           -1.17002538183678        2.98500642503873       -0.76874085212049
H           -2.22627049790555        0.48825885552212       -2.13685074265005
H           -0.79916773419619        1.44617360727114       -2.54618014932415
H           -0.93127606390219        1.25566487025698        1.38641751987317
H           -0.04542291412171        0.49755845255636       -0.02904269303106
H            2.42354875497462       -0.35965044913407        0.50789013114255
H            2.49919897737843        1.27924308487158       -0.29162485851057
H            2.97365653267626        0.18093705523287       -2.50669616801302
H            2.84328892490975       -1.45386562564133       -1.77537317061946
H            4.71523297984865        1.80850432224037       -1.64173564353410
H            7.06263574857344        1.87208906782404       -1.01107583335231
H            8.91769907173167        1.83391993879784        0.46988445531258
H            9.30963957461759        1.10209643279031       -1.11609349988479
H           10.20882490858768        0.61382849921356        0.34427813512879
H            6.98299437048522       -4.00081118652126        1.69642442822850
H            5.44311293678410       -3.13740681699655        1.94048147580830
H            5.82477178714030       -3.85972527960258        0.35040702487942
H            4.33514494693521       -2.09320483525370        0.11157187506642
H            0.73132940161891       -2.68244640261670       -0.34949660098416
H           -0.87114851937211       -2.48818209732614        0.35069045387511
H            0.42082561100439       -1.35780547346151        0.77230072714977
H           -4.54202173909068        2.98154938959000       -0.17852170218089
H           -3.86546011942395        3.05826168052965        2.78805803947534
H           -4.95563386747498        1.89396029300826        2.02293524055438
H           -5.36288981033838        3.61021050680649        2.04002329197047
H           -2.54198052733371        4.68488875557283        1.34953300453295
H           -2.81971957249641        4.75478899362735       -0.39503593113783
H           -4.09647197974820        5.23438841204949        0.72076802071715
H           -0.77987288627971        2.86804975758625        2.99959382759385
