72
 energy: 21.124769227296 xtb: 6.6.1 (8d0f1dd)
N           -1.57206850525148        2.91752587077409        2.36566746995256
C           -1.63166933412814        2.05912963515829        1.45347664728280
C           -2.71631121366551        2.02396359415501        0.40799796735979
C           -3.38141339575424        0.65778976696873        0.41846360221484
C           -4.26093629562638        0.30316406503638       -0.60573598114380
C           -4.86269285976484       -0.93994969633464       -0.63727058907101
O           -5.73247497572381       -1.36970809787239       -1.59467990350191
C           -6.09649679262790       -0.49088808397819       -2.62706042342101
C           -4.58557158759982       -1.87692388603905        0.38299460929032
O           -5.19802083360164       -3.08645868728834        0.25057483745165
C           -4.94192711402034       -4.07780274047540        1.21130598246384
C           -3.75162307003066       -1.50592668462462        1.41970904397494
C           -3.16443447826483       -0.24799946808430        1.43909059463238
C           -1.99187094505695        2.27834758034020       -0.94874012306206
C           -1.46380084693691        1.04435434111104       -1.70416955650701
C           -0.63765980387527        0.10660947352609       -0.88536413219835
N           -0.94025233313443       -1.10796024043183       -0.78847435467409
C            2.87154957242361        0.23927694832583       -0.30780820207695
C            3.08837028620988       -0.39693966343322       -1.63586890521645
C            4.29506690871519       -0.10226622821496       -0.74629793139758
C            5.16491370111973        1.01197546012068       -1.09705355526975
C            6.48825071533370        1.00856352190046       -0.77421464120654
C            7.07340190537462       -0.07467241363556       -0.11105463943858
O            8.38134426011500       -0.16185086278795        0.25846230030784
C            9.23587831010338        0.91386603797603       -0.02200418390580
C            6.27194105550086       -1.20977238401908        0.22548173875783
O            6.95459846576858       -2.21091357376059        0.85139765515527
C            6.25527443433231       -3.37141831068982        1.21833483394508
C            4.94808566453014       -1.22983085840347       -0.07843016874202
C           -0.15566013041487       -2.01413452876916       -0.00456893402259
C           -3.81176852086206        3.10481966673981        0.63184838988303
C           -4.54197909988468        2.89037433360800        1.95692856967251
C           -3.27851809016575        4.53546505260859        0.56902211489376
H           -4.47367867944507        1.01651542114096       -1.38624360376166
H           -6.58839601420532        0.40853881191521       -2.24038993479167
H           -6.80161924866635       -1.04592066893775       -3.24469752590659
H           -5.23536425203051       -0.20034908537986       -3.23880755956262
H           -5.28540509549012       -3.77760231002742        2.20743831424147
H           -5.50668755974718       -4.95052925910285        0.88610710070860
H           -3.87769770118980       -4.33336403572237        1.25706840047547
H           -3.54603990478137       -2.18764938632697        2.23037674223388
H           -2.53638072008171        0.01215070329931        2.27743804278678
H           -2.68346658034924        2.79251653634221       -1.61971693449503
H           -1.16137345584081        2.96391091682345       -0.75781788829068
H           -2.28682287239275        0.47373254780355       -2.13331671319020
H           -0.84306617939822        1.41994845330544       -2.52600852059085
H           -0.87585875565886        1.27481057749846        1.30618327123808
H            0.25099149820120        0.54211587033307       -0.40285603693779
H            2.46495091977436       -0.35674023536935        0.49372222186881
H            2.61206575343288        1.28567942238409       -0.27263695547377
H            2.96727613287630        0.20702330023001       -2.52223080494430
H            2.81182368667217       -1.43173640986780       -1.76792459351020
H            4.72281469535050        1.85546644525960       -1.60357698656118
H            7.09042618916136        1.86320723156008       -1.04101506403470
H            8.91428809884667        1.83122915407369        0.48374508651872
H            9.31314910370916        1.10273751346584       -1.09841698847709
H           10.20990223601810        0.61390775419310        0.36135756732204
H            6.99205108294403       -4.01649239848746        1.69474266363663
H            5.45208401016700       -3.15328747970466        1.93085228768716
H            5.83531182504548       -3.88491529242479        0.34637463625517
H            4.32395096499764       -2.07268568166919        0.17118857819091
H            0.36638259304220       -2.70469165544971       -0.67248085197627
H           -0.83798814432938       -2.61071491493703        0.60415092323173
H            0.58335401319815       -1.52132336514043        0.64637990054072
H           -4.54247250809488        2.97922003657250       -0.17633398002261
H           -3.85801410016549        3.04437478665201        2.78513277172895
H           -4.95029212881996        1.88434553024622        2.01784531418299
H           -5.36056394869438        3.60106335796568        2.04530198621261
H           -2.54003178910912        4.68972779148986        1.34835230090288
H           -2.82948004162232        4.75893182563021       -0.39519433569527
H           -4.09945899721612        5.23148963371409        0.72665031373346
H           -0.77028998646375        2.85484045410040        2.98978305022359
