72
 energy: 59.423727134839 xtb: 6.6.1 (8d0f1dd)
N           -1.58673888441558        2.90101506236561        2.36138444252398
C           -1.63569597363651        2.09266357613242        1.40297956327916
C           -2.73593596651214        2.03867503576940        0.37418353879841
C           -3.37176620748002        0.66003220330259        0.40019355284979
C           -4.28136397432575        0.28757229639783       -0.59184236186185
C           -4.86057056940416       -0.96727352313500       -0.60097311410309
O           -5.76692627842686       -1.41195558040665       -1.51876602666695
C           -6.20451846057435       -0.52764797654349       -2.51493704564007
C           -4.52621250467336       -1.89978472165289        0.40458425680744
O           -5.13048013519335       -3.11918216452265        0.30348056650606
C           -4.84449665761711       -4.08732655528915        1.27918315900076
C           -3.64557873193476       -1.51892025978323        1.39834296595123
C           -3.07797528490878       -0.25116621737105        1.39423982304900
C           -2.06309518317097        2.28132553364792       -1.01093873014255
C           -1.42407153254234        1.04764763680972       -1.68040657231257
C           -0.40251059842744        0.37065185591841       -0.83096549338004
N           -0.11886950127400       -0.84790186209891       -1.03018268245472
C            2.30543224568605        0.11264735624575       -0.39678805493592
C            3.03674537155520       -0.43512214621555       -1.53403142078793
C            4.39921655742714       -0.24921516269815       -0.91997430173158
C            5.13450468187588        0.90491378872640       -1.11341485069373
C            6.45656972879208        0.96183684512470       -0.70395732398011
C            7.04788877808602       -0.11019859641423       -0.05700081560832
O            8.35159066516836       -0.17925531027772        0.34009438397240
C            9.18124237072495        0.92136920163367        0.09381862698242
C            6.27054482490556       -1.25264542230390        0.24533015764219
O            6.94482129469967       -2.24793623396256        0.88631549908446
C            6.26821617894558       -3.44039853578790        1.19554934850064
C            4.95271863477423       -1.29475064817202       -0.15604639693759
C            0.07353472513141       -1.89211062830386       -0.12238284510279
C           -3.83833412150819        3.10115924193759        0.62179728525247
C           -4.53615085063655        2.85537685762138        1.95712794447469
C           -3.31661311933439        4.53418942389466        0.56488216515827
H           -4.54278001065204        0.99316123054274       -1.36279778297165
H           -6.68169363234672        0.36033650344077       -2.08580727055475
H           -6.93831102309650       -1.08411961312944       -3.09641399178007
H           -5.38436292630980       -0.21792914763384       -3.17162091640619
H           -5.14863169219820       -3.75612301184222        2.27753085838029
H           -5.42950996615744       -4.96355617204900        1.00393925548996
H           -3.78227956649624       -4.35356981147562        1.28965025843311
H           -3.39347707820788       -2.20080056089812        2.19446122285061
H           -2.40720251793735        0.01958317334792        2.19424449266235
H           -2.82123681882460        2.69359107532312       -1.69351261817525
H           -1.29504571675493        3.04567396112132       -0.88133723281094
H           -2.16690783547989        0.31449151744076       -1.97623283083901
H           -0.91160372688972        1.40365227581107       -2.57264461158553
H           -0.83147994448986        1.39409019303042        1.16320370242121
H            0.07228828486557        1.00917612893567       -0.11591920393207
H            2.32471567376081       -0.48562185821798        0.49349855358783
H            2.17214022992806        1.15212303767462       -0.37234132975830
H            2.89282475049091        0.17760989946029       -2.41278795746359
H            2.84377233040420       -1.48327730749386       -1.75745379826503
H            4.69074801485742        1.74884813540767       -1.61665709925481
H            7.03028977734530        1.84142963488859       -0.94283766265327
H            8.82060498615900        1.82460445510980        0.59910949135934
H            9.27573702015418        1.11854342817296       -0.97979230150947
H           10.15385577533283        0.64775065132940        0.50001375631278
H            7.00583621931410       -4.07995859140979        1.67831722716938
H            5.43837649789384       -3.26723834814948        1.88830034647889
H            5.88999123757185       -3.94317691679487        0.29835219870015
H            4.35010358420468       -2.16423614173856        0.07550688630384
H            0.31970326926236       -2.74712401633166       -0.76031272435215
H           -0.91960980601904       -2.08016119055722        0.31563592266530
H            0.73470346016433       -1.82621724384804        0.79892707220206
H           -4.57894463295051        2.98066814848410       -0.17698962188267
H           -3.82792471857375        3.00264244225090        2.76541376860325
H           -4.92986739419583        1.84286694465599        2.00831609112201
H           -5.35754077736212        3.55905218991655        2.08057093235292
H           -2.55945563221786        4.67500450169766        1.32503323275159
H           -2.89418379770007        4.77096170786765       -0.40744529702800
H           -4.13289831202521        5.22667524783741        0.75390177407420
H           -0.73735696707174        2.82674427476033        2.91853500123226
