72
 energy: 20.263966703949 xtb: 6.6.1 (8d0f1dd)
N           -1.54511415215738        2.86837109149161        2.30983566742111
C           -1.59692080820331        2.10950583901144        1.31194302115709
C           -2.74007863138542        2.05039899056291        0.33151166925947
C           -3.35365616743787        0.66098266255832        0.37614902435488
C           -4.29069711509130        0.27589316457136       -0.58495510126703
C           -4.85692047301102       -0.98496649405772       -0.57711798020195
O           -5.78536420233618       -1.44059329733677       -1.46948200316925
C           -6.26993916448541       -0.55502657248560       -2.44295595684529
C           -4.48319657272948       -1.91349905405186        0.41724061985625
O           -5.08368220536569       -3.13819008255449        0.33736428715931
C           -4.78437833453659       -4.09218507299157        1.32202132852848
C           -3.57019262774639       -1.52522466007018        1.37856926265504
C           -3.01427147022038       -0.25175057216990        1.35572310335514
C           -2.12015427845424        2.28924609705454       -1.07256656018339
C           -1.40762111974343        1.06868103969679       -1.69696610397374
C           -0.30258672748003        0.62438822640663       -0.81578346067849
N            0.49699351463958       -0.52571298398172       -0.76411249682381
C            1.98088774739511       -0.08217172827628       -0.42593491542376
C            2.99363802294839       -0.48129732053675       -1.45341697022438
C            4.37480626737827       -0.29678432383546       -0.87939340157666
C            5.11077783059543        0.84755165190995       -1.08520703794740
C            6.43422319905821        0.92147169445766       -0.66823411362156
C            7.03148634915211       -0.14250303593090       -0.01845712283267
O            8.32929782102512       -0.19199829771397        0.40249555026959
C            9.14553036240575        0.92339870196047        0.16906782420578
C            6.26944489566580       -1.30086686032502        0.25669316083029
O            6.94933579395724       -2.29207367167951        0.89938015596859
C            6.28355163107540       -3.49791521504003        1.18049170396507
C            4.95254023385494       -1.35422911179812       -0.15812127008359
C            0.03793049718328       -1.75351996295640       -0.26148380940741
C           -3.84994877069787        3.09467392927218        0.61005785072656
C           -4.52367346507888        2.82938142956476        1.95354144760165
C           -3.34309491639249        4.53347570177378        0.55985391798827
H           -4.58249204385827        0.97751325024982       -1.34846977894035
H           -6.73791074591466        0.32677105416137       -1.99152142667584
H           -7.01950020433037       -1.11730900499096       -2.99811452936573
H           -5.47889229860864       -0.23366362428678       -3.12894155255713
H           -5.06061796482377       -3.74106186575866        2.32183008460445
H           -5.38431992602247       -4.96646101711326        1.07362633577172
H           -3.72450176976051       -4.36819613345743        1.31161836598482
H           -3.28430087207016       -2.20719801384584        2.16371579016638
H           -2.31859187453649        0.02281896076133        2.13220105245609
H           -2.91013624218909        2.60724458568215       -1.76196491990991
H           -1.40999981971011        3.11783155929275       -0.99015368237308
H           -2.07956141875538        0.24974694835884       -1.88453439319171
H           -0.97345017724252        1.42913688963692       -2.63931575300198
H           -0.77765436995006        1.46030801092492        0.97578885909214
H            0.31947797228320        1.39071902963754       -0.50226793962962
H            2.30731457619690       -0.53525272692444        0.55130954546017
H            2.09025856709731        0.99430413157888       -0.28438500108440
H            2.85477845016159        0.13315995629622       -2.33616026147328
H            2.80495381718426       -1.52274188886566       -1.69669603958763
H            4.66652029471335        1.68929133079416       -1.59307490221063
H            6.99699420565952        1.81292277427667       -0.89092520152831
H            8.76400667289589        1.81940668056023        0.67144262559073
H            9.25119850773659        1.12582029151096       -0.90239344290398
H           10.11650893092615        0.66291218886692        0.58722056686968
H            7.02033728272458       -4.13246632242194        1.67087048768407
H            5.43625615377641       -3.34551404874377        1.85742871644438
H            5.93138399436928       -3.99369529592741        0.26874779932407
H            4.36602616978597       -2.24091819412717        0.04907862341045
H            0.06417654264166       -2.46045594262971       -1.09401726511738
H           -0.96963966400337       -1.75923184460594        0.17085817374815
H            0.73545764845805       -2.06965084457182        0.57083844531221
H           -4.60188939490306        2.97681430058073       -0.17943906736228
H           -3.80268866955409        2.97196496716736        2.75115716633308
H           -4.91112944599960        1.81438590912821        1.99960526257536
H           -5.34835096361752        3.52507443633152        2.09846306091234
H           -2.57145974977554        4.67576468506131        1.30621737636816
H           -2.94337015107785        4.78423530611418       -0.41903800689853
H           -4.16358075416927        5.21541682312156        0.77208507149335
H           -0.68697199656486        2.79937095015934        2.85216999386392
