72
 energy: 10.962735065332 xtb: 6.6.1 (8d0f1dd)
N           -1.52967673548724        2.84326414458141        2.28980652495468
C           -1.58407273953980        2.11381944433202        1.26971929536941
C           -2.74191723917890        2.05260204577973        0.30951123175380
C           -3.34465644536261        0.65849844915250        0.36316436767801
C           -4.29480467945753        0.26898169825196       -0.58261332415584
C           -4.85516541100203       -0.99402908220374       -0.56561636714542
O           -5.79373183659760       -1.45338574264312       -1.44406080755530
C           -6.30166492213931       -0.56833088570653       -2.40665874428157
C           -4.46186258186665       -1.92046786340154        0.42364059038656
O           -5.06014045457747       -3.14589100911724        0.35477904271261
C           -4.75412298687291       -4.09401991117774        1.34328963688876
C           -3.53290537597800       -1.52907878647105        1.36805429420937
C           -2.98241794399367       -0.25316809446045        1.33603512182033
C           -2.14189390278303        2.29270479644192       -1.10094459206011
C           -1.37536066233461        1.09492528186973       -1.69695949498977
C           -0.23347865835603        0.74759965763950       -0.81885171253316
N            0.52135296549867       -0.41233866180402       -0.64397106135511
C            1.96261784320668       -0.09273793611612       -0.37574703270537
C            2.97621894728303       -0.50279006500386       -1.41558953932339
C            4.36722406941734       -0.33091273628687       -0.86816696104737
C            5.10022781856129        0.81800837340388       -1.07380404629147
C            6.42112948656725        0.90150109156579       -0.65154483722783
C            7.02251630650148       -0.15884510259740        0.00099782230800
O            8.31630632354423       -0.19696328321290        0.43414629560256
C            9.12644125307430        0.92482373594318        0.20669284837666
C            6.26899328977563       -1.32574897850217        0.26273821872986
O            6.95092948164766       -2.31442941313560        0.90742376133004
C            6.29208088333928       -3.52698546875507        1.17389573073891
C            4.95478955194861       -1.38900281457476       -0.15929965067793
C            0.00291858286740       -1.66864040671155       -0.34640366319635
C           -3.85464501588714        3.09074977553278        0.60344774597261
C           -4.51677952165706        2.81615044333435        1.95089158103050
C           -3.35577989848723        4.53279248729250        0.55754478202486
H           -4.60142763395595        0.96966093571485       -1.34115237701063
H           -6.76563409513205        0.31006627010749       -1.94482371888413
H           -7.05857836627793       -1.13393711060067       -2.94809977821700
H           -5.52586006513219       -0.24172563309698       -3.10738919941002
H           -5.01636815251228       -3.73365007775025        2.34353747450535
H           -5.36135856502167       -4.96675972917852        1.10787533301354
H           -3.69576489165550       -4.37531305853284        1.32245154476125
H           -3.23042527472719       -2.20999366710122        2.14782596640509
H           -2.27500757432781        0.02383312882626        2.10107263125873
H           -2.94451576148147        2.55632990406040       -1.79518212534528
H           -1.46778107637524        3.15194390097680       -1.04203175169306
H           -2.01322977182844        0.23429537863188       -1.82090935064242
H           -0.99696091361850        1.43428830350152       -2.67107543641415
H           -0.75100597573583        1.49961117160162        0.88416743231115
H            0.46979876902035        1.49694375014863       -0.68357260877896
H            2.27165647599469       -0.57053075620454        0.59716583809645
H            2.15867173770305        0.98532261191525       -0.20881021882686
H            2.83047785993626        0.11484697541800       -2.29750167234253
H            2.77513375616676       -1.54117383655058       -1.65732867990233
H            4.65458790339869        1.65766104222124       -1.58472425579608
H            6.97834923193132        1.79898110818155       -0.86519569218989
H            8.73538888486838        1.81739486863746        0.70757496574280
H            9.23809055784717        1.12963390767360       -0.86370257522245
H           10.09660088919224        0.67064054438694        0.63054480480611
H            7.02963767337810       -4.15830837681012        1.66719246237796
H            5.43662495531091       -3.38603561419375        1.84320545180344
H            5.95374017836308       -4.01886205174462        0.25485765012964
H            4.37417954921094       -2.28107304264258        0.03575624965318
H           -0.02502736998308       -2.27068497877481       -1.25784209146156
H           -0.99242175563470       -1.63828274523060        0.10589451329297
H            0.69494259666343       -2.11599846443704        0.40622841565373
H           -4.61261640979150        2.97430785282391       -0.18089333629791
H           -3.79098479901957        2.95550493516547        2.74484451613920
H           -4.90180959368236        1.80022916748644        1.99407017125949
H           -5.34252624128862        3.50815176768163        2.10567080391949
H           -2.57829365168465        4.67831938323271        1.29794954497931
H           -2.96728774358464        4.79235693513358       -0.42370591853791
H           -4.17881719441441        5.20840692264567        0.78100891634117
H           -0.66276019225033        2.78880816376091        2.82101379860290
