25
 energy: 0.000000000000 xtb: 6.6.1 (8d0f1dd)
C            2.32682702359001        1.41200791036646        2.32085864244475
N            0.00000000000000        1.45805754053021        1.32815671343239
C            5.26117558782077        2.34731455558326        3.55604923289467
N            5.19572696686325        5.22990981949824        4.09245121647228
C            5.52028828722798        2.08176648654975        2.09180628800290
C            2.09936021435930        4.43003149895675        3.87912601753353
C            5.93484828668494        4.78312076638619        5.53340422149456
O            4.95563301420442        5.85082220757217        5.47798663462793
N            4.12405198028557        3.66684899962716        2.42793100157383
C            2.71848184809340        1.45805754053021        0.00000000000000
C            2.36254678685573        5.78244014065802        3.65798945380028
O            4.70976510087513        6.20556114051055        6.24967859907549
N            4.89161783228903        6.90264626241582        1.08948436554191
C            1.08697982444719        1.09116185897850        5.68217268547912
H            4.77139455662955        6.28544479129590        6.23377021094091
H            5.21829074371707        4.10776434120778        4.50076782705415
H            3.69035022707580        2.35223070008181        2.75054368607542
H            2.46895063895579        3.56985203781488        1.32815671343239
H            2.36254678685573        0.00000000000000        3.97333199516279
H            1.39254484021848        2.34901167365023        5.87445302545198
H            5.90080875146853        5.03589504329878        5.56215842310936
H            3.22590777057973        2.48756941046099        2.86188466185884
H            3.32777447562949        2.55527393551155        4.69687825920100
H            4.22108855298742        8.77593480595108        7.43219248913159
H            7.22054646006111        5.94536779761104        5.20461312244193
