25
 energy: 30.717671975791 xtb: 6.6.1 (8d0f1dd)
C            3.60508823437352        3.64655885428195        0.23397282259103
N            2.30923686560016       -0.86710753213342       -0.00667553612591
C            2.33055589164506       -2.15496188985580       -0.06032663272184
N            1.06528490292015       -2.70131170501242       -0.09928290090657
C            0.20755319106905       -1.64834257462931       -0.09393100997815
C            0.99358307344092       -0.50685599771151       -0.04794679185325
C            0.41477783508725        0.81521828814513        0.00515821313279
O            0.99284881796170        1.87908363162043        0.12755603764365
N           -0.99767390192844        0.73336164481458       -0.00598707573448
C           -1.72527249594022        1.99490788892226        0.08000602588695
C           -1.79288519503326       -0.39403248322961       -0.05137955624389
O           -3.00131433451808       -0.32988327846457       -0.03053717307829
N           -1.14802171364117       -1.62860765161455       -0.10453727633255
C           -1.93487681519868       -2.83993617102564       -0.16637417631651
H            3.99735669985401        3.99465043251705        1.16855259522252
H            4.10054751696856        3.88626580392710       -0.68325527858086
H            2.68185359209901        3.11709389290871        0.19132685043814
H            3.22176785005467       -2.74803424093286       -0.05465003700205
H           -0.99605153026935        2.80433074340971        0.05640793610037
H           -2.40814485700132        2.07516676053229       -0.76647212134097
H           -2.30340411326963        2.02900497932194        1.00393043714808
H           -1.77039580457856       -3.44761427997768        0.72365668546880
H           -1.67741243034743       -3.40860216441793       -1.06176512876242
H           -2.98190479560392       -2.54274994251896       -0.20669639121591
H            0.83522940539524       -3.67957637526984       -0.12136828126523
