25
 energy: 0.000000000000 xtb: 6.6.1 (8d0f1dd)
C            3.23720163006194        1.16630919979326        0.08434469647475
N            2.29877817382611        0.07527477071623        0.03981603040599
C            2.58028210190900       -1.21425402444508        0.03006176031096
N            1.43813958087363       -1.93419271955128        0.00098261760884
C            0.39035688448383       -1.05887472636071       -0.00790371836672
C            0.93510056364412        0.21347819449412        0.01709077491437
C            0.09450143893243        1.40504303904423       -0.00410947031874
O            0.49712751527797        2.54126714362870       -0.00342325688240
N           -1.25076640035757        1.06271879480407       -0.03085478223738
C           -2.21907211982101        2.15522099834493       -0.05001256985998
C           -1.81739487048744       -0.20012725993278       -0.04692818574614
O           -2.99983886758376       -0.37846417018721       -0.07008878229737
N           -0.92618586207120       -1.30210215599479       -0.03682761578324
C           -1.46982264913417       -2.64643102187190       -0.06029820460571
H            3.71247264356769        1.21471455160235        1.06488849150277
H            4.00791497605742        1.03430808813993       -0.67357694370751
H            2.69910007168542        2.09770118228144       -0.09130154882931
H            3.56654120610678       -1.63682992603973        0.04233140067262
H           -1.67107961066214        3.09322851271934       -0.02552706933167
H           -2.82428953597071        2.09428624779827       -0.95318082946668
H           -2.87644029173232        2.07745725625962        0.81450067533302
H           -1.17061996399332       -3.19584890659852        0.83242232437030
H           -1.14560257411436       -3.17511610292205       -0.95688275822323
H           -2.55549792440841       -2.55659984320617       -0.07459039797972
H            1.38130855184625       -2.94313852034425       -0.01389874181052
25
 energy: -2.687820777713 xtb: 6.6.1 (8d0f1dd)
C            3.23155722855934        1.17869579676467        0.08610773168322
N            2.29675457104694        0.09224457009536        0.03895054416051
C            2.59871120855126       -1.23427389970776        0.03203657653478
N            1.45327530924110       -1.98278544345437        0.00193457816570
C            0.40273414856830       -1.08438601829287       -0.00812966273523
C            0.92100322708302        0.20946249610532        0.01601033481082
C            0.09564067105689        1.39495597942553       -0.00502382361579
O            0.49439631156489        2.56100375393515       -0.00319605790472
N           -1.26726917249759        1.06047438520995       -0.03221450696351
C           -2.22729745198278        2.16246574326239       -0.05136100176587
C           -1.82497196843266       -0.19295582526672       -0.04854831832375
O           -3.02247106485716       -0.37146344403410       -0.07244925241326
N           -0.93538178017743       -1.30146859466018       -0.03748601913403
C           -1.48340942319165       -2.63408130515614       -0.06003705035828
H            3.72366415593088        1.21545156319209        1.06195742183374
H            3.99192170523537        1.04936206781597       -0.68586285860798
H            2.69164561572060        2.11041717342623       -0.07488235989827
H            3.57905632432067       -1.64422685727178        0.04747292838726
H           -1.66995535937191        3.09700166918677       -0.02757578544295
H           -2.83622482021468        2.11379033669189       -0.95414919149143
H           -2.88779665583070        2.09802654297175        0.81322406723247
H           -1.17387812499678       -3.18009735617055        0.83218780799896
H           -1.15204570065536       -3.15932730612608       -0.95693956838086
H           -2.56830293330929       -2.53749039449491       -0.07233860950319
H            1.48085864657492       -3.03176703127561       -0.01265402812103
25
 energy: 4.044830413791 xtb: 6.6.1 (8d0f1dd)
C            3.22196309461311        1.18655647436016        0.08745526409648
N            2.28910454072568        0.10383002189301        0.03751855876306
C            2.61140583407689       -1.24829660094905        0.03610706856057
N            1.47076490840781       -2.03467807549545        0.00419638692929
C            0.41435167598022       -1.12051777915273       -0.00851549214793
C            0.90148445148977        0.19392557913948        0.01425293320386
C            0.09618282094011        1.37138863634252       -0.00610816561984
O            0.48625271994895        2.55388620935102       -0.00219371893274
N           -1.28978361775125        1.06297667567019       -0.03461523431438
C           -2.23647903520231        2.17776846370863       -0.05373639166050
C           -1.82982442688842       -0.18070123997836       -0.05113825030992
O           -3.03384301107159       -0.36405222693014       -0.07632837213630
N           -0.94632610783860       -1.29552776792187       -0.03849879679521
C           -1.50388159128534       -2.61632929498626       -0.05962887087504
H            3.74093269759023        1.20944149909390        1.05290061639176
H            3.96620293634507        1.07402981105541       -0.70616718136418
H            2.67940318235074        2.12197559640356       -0.04552069957666
H            3.59118388634050       -1.63998949734939        0.05702223095445
H           -1.66659096502376        3.10650690365379       -0.03106297703371
H           -2.85012716663632        2.14198313261242       -0.95533171309580
H           -2.90049572677201        2.12807900337771        0.81058349911489
H           -1.18488803131389       -3.16159727644981        0.83051512631674
H           -1.16881403466778       -3.14079537089952       -0.95635150255928
H           -2.58786672502046       -2.51411212199453       -0.06853214848985
H            1.64190235859886       -3.12672215238263       -0.00978827327248
25
 energy: 9.171577392566 xtb: 6.6.1 (8d0f1dd)
C            3.21497620608801        1.18819706389036        0.08741478270333
N            2.28633967068486        0.10200795506147        0.03768030111280
C            2.61445378077950       -1.25211126913526        0.03917271109913
N            1.48180547548651       -2.05538272462910        0.00617427395773
C            0.42006805545838       -1.14030798323894       -0.00877773476055
C            0.89577698776628        0.18022207139235        0.01385959499478
C            0.09654547689026        1.35881687746332       -0.00618045989690
O            0.48414502444152        2.54025566472539       -0.00085920499727
N           -1.29955973469951        1.06837306512887       -0.03658405514642
C           -2.24001030594012        2.18809892299859       -0.05604882095405
C           -1.83090319963083       -0.17586730053901       -0.05328436981670
O           -3.03375252253900       -0.36617870861312       -0.07971897255354
N           -0.94797148635802       -1.29176370404860       -0.03924152897302
C           -1.51654851740222       -2.60822228592739       -0.05924367070120
H            3.75320089963579        1.19983848188615        1.04287191990002
H            3.94430805991641        1.09581734303930       -0.72366050937294
H            2.66698111688475        2.12575591348754       -0.01946908881054
H            3.59944613798750       -1.63344138465509        0.06526657391561
H           -1.66490083144110        3.11351646237012       -0.03433078358699
H           -2.85588306627256        2.15731369158994       -0.95658103984832
H           -2.90519100926314        2.14510040491041        0.80805323452126
H           -1.19637352712644       -3.15434453801621        0.82965967608346
H           -1.18553853432387       -3.13352832865235       -0.95675527072080
H           -2.60019407194024       -2.50099765071062       -0.06507100678717
H            1.73099458285345       -3.16213943760607       -0.00731265521445
25
 energy: 10.346496242550 xtb: 6.6.1 (8d0f1dd)
C            3.21213700732136        1.18754725896708        0.08709056903876
N            2.28675844714730        0.09752490888834        0.03871932895862
C            2.61292242594890       -1.25190003388744        0.04111189151737
N            1.48492586812224       -2.05846400640645        0.00734878598912
C            0.42128554308419       -1.14586138169173       -0.00908523260867
C            0.89665981881317        0.17414487144501        0.01352043133977
C            0.09712859700240        1.35579018223914       -0.00615512645714
O            0.48521379662557        2.53317048027883        0.00063753451677
N           -1.30091564572184        1.07174934629018       -0.03785069185351
C           -2.24008784391593        2.19140744467556       -0.05739072154698
C           -1.83106380295298       -0.17490179665361       -0.05473582810648
O           -3.03174450319058       -0.36893635336675       -0.08176990876563
N           -0.94667143451232       -1.28984986296990       -0.03979443290322
C           -1.52074665583889       -2.60635026076725       -0.05899976061268
H            3.76062270962784        1.19234062521616        1.03570680850617
H            3.93147377916136        1.10819273787705       -0.73366375779899
H            2.65961763709740        2.12453558295549       -0.00447803608523
H            3.60108903287828       -1.62936090876920        0.07084014449873
H           -1.66465461771846        3.11618734368410       -0.03630271140656
H           -2.85645119889889        2.16078634155247       -0.95750661537059
H           -2.90495550614969        2.14958510565928        0.80693823624270
H           -1.20119582824520       -3.15312645834329        0.82930637433392
H           -1.19381183226211       -3.13221444588681       -0.95734092623903
H           -2.60419458597363       -2.49692163041870       -0.06290353014320
H            1.75887346048667       -3.16604648839553       -0.00620892889677
25
 energy: 10.171353815032 xtb: 6.6.1 (8d0f1dd)
C            3.21121465254601        1.18682285033619        0.08679498092288
N            2.28769033091888        0.09436175283699        0.03999469182938
C            2.61072433230185       -1.25109277132641        0.04261735833492
N            1.48463077879805       -2.05725688504223        0.00815405157481
C            0.42072497775281       -1.14656312000553       -0.00950930315858
C            0.89817516499227        0.17213156932188        0.01282468941714
C            0.09762518039607        1.35549118286816       -0.00620068758717
O            0.48662618761890        2.53068863411814        0.00214285589751
N           -1.29991435371999        1.07269592196337       -0.03874904468997
C           -2.23911167111326        2.19156240949287       -0.05810457464244
C           -1.83136064202286       -0.17490274876705       -0.05570692516864
O           -3.03077266368591       -0.36978172776877       -0.08303126606245
N           -0.94585199044851       -1.28904211736213       -0.04033014453482
C           -1.52148726660501       -2.60641295753365       -0.05893541605985
H            3.76605219415922        1.18717132819575        1.03065383918557
H            3.92381674719025        1.11460522551698       -0.73944832245094
H            2.65586511649258        2.12246845303842        0.00397050164163
H            3.60007748626234       -1.62736566110738        0.07494621360834
H           -1.66451356007730        3.11671639359915       -0.03741601208645
H           -2.85574867407726        2.16034794721820       -0.95800821612346
H           -2.90354901216537        2.14968806285432        0.80656031940464
H           -1.20160951352779       -3.15310029949316        0.82903282470583
H           -1.19649191350885       -3.13211247088397       -0.95783332677634
H           -2.60479669717614       -2.49650147725679       -0.06162251628197
H            1.76419947663519       -3.16159089264131       -0.00576267475232
25
 energy: 9.856235617889 xtb: 6.6.1 (8d0f1dd)
C            3.21117643094482        1.18668564992477        0.08660236500531
N            2.28813483693208        0.09352743734204        0.04094629715959
C            2.60977747635650       -1.25094613378296        0.04347661656853
N            1.48372584898986       -2.05660734532796        0.00859955964005
C            0.42015005930332       -1.14619212805184       -0.00987238465444
C            0.89863043611593        0.17218794188847        0.01219211975801
C            0.09781459665722        1.35560866703006       -0.00619287987946
O            0.48722836331968        2.53078269950200        0.00304497801109
N           -1.29916353438638        1.07236215833434       -0.03923565154337
C           -2.23846139031611        2.19102405029138       -0.05837753414191
C           -1.83162068464318       -0.17495014405505       -0.05613532138100
O           -3.03086551735739       -0.36944345862124       -0.08352204598656
N           -0.94588125941077       -1.28895634442685       -0.04071415801398
C           -1.52118695298192       -2.60674816038859       -0.05898760532192
H            3.76911914372636        1.18488066304805        1.02820872348952
H            3.92064317109009        1.11679015505214       -0.74208775581727
H            2.65472905943089        2.12158720127427        0.00749869814516
H            3.59915162161046       -1.62723079697514        0.07712452516530
H           -1.66427654094771        3.11650236581648       -0.03783661600848
H           -2.85532733774214        2.15959235289117       -0.95816189725988
H           -2.90272111562595        2.14908832495398        0.80648095069776
H           -1.20057434851700       -3.15315291997828        0.82882364656740
H           -1.19643983912062       -3.13220404700714       -0.95805453673727
H           -2.60445305464737       -2.49705950760229       -0.06114432597977
H            1.76290519915547       -3.15810007895980       -0.00564187133512
25
 energy: 9.602060531371 xtb: 6.6.1 (8d0f1dd)
C            3.21125698807158        1.18673042760900        0.08640146889972
N            2.28836399487294        0.09330056922815        0.04207134062650
C            2.60932384625368       -1.25114633259657        0.04426185273661
N            1.48294256688368       -2.05662499972884        0.00900595700666
C            0.41980035490381       -1.14590268456954       -0.01030082658876
C            0.89869321022337        0.17256110794015        0.01152178754849
C            0.09789380382188        1.35559238846482       -0.00611924380921
O            0.48746863055953        2.53120516087605        0.00380931132269
N           -1.29875324769880        1.07189418558931       -0.03969944939997
C           -2.23805237095932        2.19062294137080       -0.05859619426443
C           -1.83180542636416       -0.17492824619585       -0.05645691228260
O           -3.03114244821482       -0.36902177786884       -0.08379053773425
N           -0.94608257287052       -1.28902244084280       -0.04113564392853
C           -1.52087728405848       -2.60698915131865       -0.05908276663523
H            3.77195760924209        1.18317669550379        1.02610322524232
H            3.91813257427680        1.11839748075819       -0.74442305950417
H            2.65407516393633        2.12115795305340        0.01041106821478
H            3.59852398627403       -1.62762776104679        0.07912026681513
H           -1.66397052803965        3.11624461378363       -0.03816020191213
H           -2.85515051987114        2.15913392298413       -0.95825021922243
H           -2.90217303863936        2.14871818990740        0.80642051479098
H           -1.19955511723512       -3.15315283138228        0.82861435847181
H           -1.19614103762618       -3.13234246427862       -0.95821376165146
H           -2.60413459207644       -2.49757417130678       -0.06084401894999
H            1.76162012227043       -3.15537417376118       -0.00563441964526
25
 energy: 9.517042516405 xtb: 6.6.1 (8d0f1dd)
C            3.21134420739037        1.18681766974589        0.08627018357978
N            2.28830249570805        0.09350178488928        0.04313365704520
C            2.60942409100149       -1.25147408454009        0.04465284045592
N            1.48271036418962       -2.05714012370074        0.00920544953342
C            0.41985271349361       -1.14587451304266       -0.01067195159350
C            0.89850339315066        0.17282851534910        0.01109721133432
C            0.09785592647628        1.35545917120677       -0.00601466347193
O            0.48729824278464        2.53141870968136        0.00413917418582
N           -1.29884561542509        1.07170439693322       -0.04000055504761
C           -2.23806678182777        2.19063428668917       -0.05869575088287
C           -1.83179564414274       -0.17488955224151       -0.05656642017291
O           -3.03127740818708       -0.36896564132349       -0.08370544248128
N           -0.94620551135900       -1.28915875295428       -0.04147382993967
C           -1.52080220282691       -2.60701740748240       -0.05918476772076
H            3.77353424558371        1.18261030924514        1.02497970150845
H            3.91693260895291        1.11901722671481       -0.74568478527632
H            2.65403104933762        2.12120453984299        0.01176628564216
H            3.59845594786049       -1.62813977161019        0.08031513869035
H           -1.66376575815724        3.11613001955724       -0.03830166300223
H           -2.85527537515436        2.15920124333558       -0.95825966674760
H           -2.90208032498629        2.14878793806064        0.80640215004838
H           -1.19927046363441       -3.15312114851703        0.82850812760704
H           -1.19608462968089       -3.13251495369201       -0.95827854321275
H           -2.60408043603249       -2.49768372737167       -0.06081488748640
H            1.76151953342098       -3.15430753260308       -0.00578309644769
