  25
        -42.10302565
 C          3.2176469781        1.1584879396        0.0208870656
 N          2.2777146875        0.0696496277       -0.0005091603
 C          2.5627130075       -1.2275584329       -0.0040504692
 N          1.4241672814       -1.9517754737       -0.0119993407
 C          0.3674500052       -1.0745648888       -0.0097663278
 C          0.9102514961        0.2049631942       -0.0031025039
 C          0.0877409421        1.3948103465       -0.0240578004
 O          0.4898926748        2.5354246077       -0.0567035313
 N         -1.2730131886        1.0666497966       -0.0073451573
 C         -2.2233788196        2.1755469539       -0.0027020503
 C         -1.8531306368       -0.1714603178        0.0070037813
 O         -3.0349046434       -0.3563730407        0.0324066431
 N         -0.9626143358       -1.3291636313       -0.0159731238
 C         -1.5268822551       -2.5456834290       -0.0457382944
 H          3.7067509972        1.2153520347        0.9948321494
 H          3.9781115606        1.0178693047       -0.7461674146
 H          2.6803606315        2.0897890266       -0.1569880771
 H          3.5501367841       -1.6473429626       -0.0026362248
 H         -1.6579429018        3.1034748412       -0.0332896579
 H         -2.8792724972        2.1034458199       -0.8690972185
 H         -2.8334153668        2.1342656261        0.8987509683
 H         -2.7552276791       -4.8021377898        1.6551733648
 H         -0.9272746798       -3.4312685075       -0.0600220172
 H         -2.5979075895       -2.5908866507       -0.0559830890
 H          1.3784344425       -2.9604169118       -0.0078799485
