25
 energy: 45.550235672320 xtb: 6.6.1 (8d0f1dd)
C            3.13038830034491        1.15599026121771        0.19945011072239
N            2.24961923593625        0.03037603269289        0.11501302998388
C            2.56268479176537       -1.32079390383138        0.06023311196019
N            1.35450676476382       -2.01425822417942        0.06117435329142
C            0.31124034258883       -1.14240234557300       -0.01769133588873
C            0.86276092965325        0.13984375701562        0.02819348049702
C            0.11122399773097        1.33466543174188        0.01061602535126
O            0.53631455625102        2.50026323926856        0.00830249435638
N           -1.28897820457888        1.08699210581820        0.10527958742100
C           -2.12839061734690        2.36127297843464        0.07117942197123
C           -1.95082616128710       -0.08903269355075       -0.03191379070467
O           -3.15680805398951        0.06746469571571       -0.12812335070265
N           -1.05540182000107       -1.34545552130747       -0.15729056849214
C           -1.39625667820735       -2.73700366501539       -0.18993943604363
H            3.85783258078491        1.01636964226769        1.01106179684666
H            3.68301305774792        1.29278881713805       -0.74221089760841
H            2.50599326725457        2.04555773415297        0.36091621609988
H            3.51646146192296       -1.76360938499320        0.27164469798888
H           -1.39784181889755        2.79501741145796       -0.44423385137061
H           -3.06465666779117        2.60196636502782       -0.25338199591139
H           -2.21936440341171        2.71891946667629        1.00258521714033
H           -1.01209284699953       -3.26522201127685        0.70914165836633
H           -0.92302155208807       -3.22670583362597       -1.04575943338170
H           -2.47872363118618       -2.83983733176580       -0.17469209281768
H            1.28861794036788       -3.01577328156936        0.05301663493453
