25
 energy: 21.888402366006 xtb: 6.6.1 (8d0f1dd)
C            3.15297717628442        1.17772770661068        0.16438752119435
N            2.26721619227658        0.04933080004456        0.07573506286328
C            2.56698186950777       -1.31377986725577        0.08341786101536
N            1.35000969855516       -1.99596895260407        0.05532878959301
C            0.31831486585932       -1.11974558999623       -0.02056112877542
C            0.87595119343842        0.16007759549244       -0.00512738256947
C            0.10414133817055        1.33647256456544       -0.06430614807597
O            0.51476374152077        2.50819609155439       -0.06682759569701
N           -1.29049157735896        1.09411787944451        0.01573982260803
C           -2.10465130714822        2.34539828019067        0.03677614426424
C           -1.92419031025804       -0.09792172572566       -0.05453739524901
O           -3.13049486187248       -0.03670383596182       -0.13447177504552
N           -1.04736349660050       -1.32678960520554       -0.12323756328824
C           -1.40562507580351       -2.72969176395961       -0.14023840627167
H            3.84147264420853        1.05605349102877        1.01469699543651
H            3.78339305907276        1.26963360247860       -0.73246499485335
H            2.52038674944600        2.07271585431755        0.24046109437649
H            3.53160352787974       -1.76872631480308        0.20269654607350
H           -1.34340460101860        2.95392774320394       -0.23145580154552
H           -2.97004223563840        2.53665317071242       -0.50033426173446
H           -2.41456963867293        2.56375114365158        1.00905938552653
H           -1.02203317632255       -3.24618707417630        0.76375101791083
H           -0.95088706787141       -3.23989173891804       -0.99225408808659
H           -2.49156049407723       -2.79948584758779       -0.13997630444293
H            1.25863613752036       -2.99345785463168        0.08238382943306
