25
 energy: 118.830302889633 xtb: 6.6.1 (8d0f1dd)
C            3.07521891460358        1.13729507684374        0.26095621094790
N            2.27491171523765       -0.07187883735941        0.13337219860791
C            2.69955190032587       -1.33635887838287        0.16691662442017
N            1.63561674836596       -2.17418065930102        0.06283079905087
C            0.47439958004131       -1.43931497486081       -0.10349782678096
C            0.90710706254122       -0.10526226208515       -0.04156667799463
C           -0.03325765729934        0.94078216440159       -0.08214339199029
O            0.15346599507032        2.15874862086300       -0.07184234288678
N           -1.30470052586573        0.44315456953454       -0.13933165451881
C           -2.68468320002716        3.36489846330059       -0.06433086036137
C           -1.90632222097867       -0.66694357085952       -0.20654204989469
O           -3.23051746389667        2.10085559281507       -0.07174621847586
N           -0.77946841945136       -1.82392135539683       -0.20866808322974
C           -1.20953878998968       -3.17285534861582       -0.30227222324015
H            3.57537680328296        1.15739872889831        1.24210746082746
H            3.80509016122278        1.15563700114025       -0.52908021944410
H            2.42681511136725        1.98258414977948        0.09723552160169
H            3.68026291275480       -1.64249862038823        0.37303969539737
H           -2.41775436886025        1.63269143488089       -0.27816400688484
H           -3.23537660185279        3.89518582946004        0.61680166397966
H           -1.58450937165767        3.46541359125405       -0.27882705749147
H           -0.89513973728706       -3.70938622682494        0.59095928960004
H           -0.78959247667336       -3.59481078213964       -1.20330465408983
H           -2.31101108172231       -3.16424695134041       -0.36728943716553
H            1.66647648635861       -3.16740480625734        0.12612074006163
