25
 energy: 107.732058737596 xtb: 6.6.1 (8d0f1dd)
C            3.06418813234152        1.13296684251280        0.23535048546081
N            2.28149736926513       -0.07628867516560        0.13037205023567
C            2.71167314743866       -1.34569744195767        0.17431164656065
N            1.65169490368058       -2.19168767078637        0.06563282042445
C            0.49446302132261       -1.45265751397647       -0.08207765556286
C            0.91119219283128       -0.11782391423986       -0.02716298108495
C           -0.03944273859314        0.93367693450488       -0.09853444906872
O            0.13875271898875        2.15360613576262       -0.07016405486224
N           -1.31312084141002        0.42352349596685       -0.19473301765527
C           -2.69621811565135        3.45365375176434       -0.01866117092994
C           -1.86853538256820       -0.72371543505400       -0.21933273050813
O           -3.20997168358325        2.18762519258209       -0.01182048343120
N           -0.76171014543963       -1.84863602974782       -0.20528117302703
C           -1.19081681559321       -3.20546054334469       -0.30352980040680
H            3.59420742356451        1.14000743814629        1.20107624921444
H            3.80832742903650        1.15825861707001       -0.56926489093890
H            2.37655922902442        1.97898389980358        0.11403863372822
H            3.69643283201107       -1.65053347912185        0.33338102009326
H           -2.39462875559453        1.58559497824534       -0.14792154454489
H           -3.31835195220679        4.07171492690130        0.52621305271426
H           -1.59086291278910        3.58916745085565       -0.20967091586456
H           -0.88037807606418       -3.74982650948404        0.59112342998904
H           -0.77695392831484       -3.64149682706223       -1.20291067484138
H           -2.29732835505431       -3.16509743973402       -0.36684272901793
H            1.69012942515445       -3.18948236336574        0.09898752858508
