25
 energy: 80.224648919443 xtb: 6.6.1 (8d0f1dd)
C            3.03013401985528        1.11862800189259        0.20618692637729
N            2.25145231199823       -0.06319838599874        0.11618428636708
C            2.71391665050343       -1.34529628861539        0.16931608998030
N            1.62653592316669       -2.19561667108269        0.07042200739792
C            0.49937659877083       -1.44547832473364       -0.08132091786867
C            0.88295977164681       -0.10946454375635       -0.03319468840062
C           -0.07316577570051        0.94561530271938       -0.08920544794877
O            0.10864241004672        2.16160393434777       -0.06523957783665
N           -1.37179927723965        0.44612595815979       -0.16910678887070
C           -2.76872600701668        3.53668744099541        0.09153136370768
C           -1.82568974921642       -0.80867465638237       -0.22879683287098
O           -3.23204661131197        2.40356268500430        0.00848288499857
N           -0.78899327129809       -1.82474724483409       -0.20532798294301
C           -1.16040438064186       -3.23071721375322       -0.29361407260364
H            3.57622132862273        1.12505613265953        1.13949572177288
H            3.77832954923754        1.15009715746025       -0.58448187439951
H            2.35590685779444        1.97146320687474        0.14390000510583
H            3.72378767385890       -1.64546063185618        0.28906324935784
H           -2.05947463828588        1.27305731503259       -0.14342981372321
H           -3.40481905144873        4.37044212527068        0.36731907326532
H           -1.69602089640968        3.75241630967878        0.00238831278061
H           -0.85388015590688       -3.79274182741091        0.59685018946265
H           -0.73844070047709       -3.70641388962480       -1.18489928001438
H           -2.24852875524744       -3.22759069725203       -0.37471792681644
H            1.70938212976474       -3.20009771264563        0.06043826339287
