25
 energy: -42.156361834290 gnorm: 0.008817257678 xtb: 6.6.1 (8d0f1dd)
C            3.23761655014868        1.06371911966166        0.03680905949522
N            2.29988785474521       -0.02507443126474        0.02318884856388
C            2.57081086756010       -1.31653393241891        0.05362167060037
N            1.42455604515773       -2.03460378869755        0.01990049605509
C            0.38819113065824       -1.15164697097161       -0.03571174360051
C            0.93601570889058        0.12919627422229       -0.03303755381187
C            0.14558669646652        1.31063156622820       -0.03909851062396
O           -1.68579250713563        3.07954009370246        0.93122618534493
N           -1.15641822600543        1.02151798768461       -0.08624129801177
C           -2.07406680567851        2.18357860277992       -0.03688551222543
C           -1.78386470147052       -0.23312161730258       -0.15829019291643
O           -2.96788923298414       -0.36854026284533       -0.26983701919982
N           -0.93234535427761       -1.35818598092935       -0.09435626710884
C           -1.51414196841744       -2.68648900109004       -0.09447350033276
H            3.95505010424992        0.93955153667160        0.84675652265922
H            3.77824421362978        1.11284034131136       -0.90906763807399
H            2.67802121310672        1.98700366196558        0.17611240493501
H            3.55301733343032       -1.74590506480219        0.09912480395815
H           -2.09019664928134        2.63235491552065       -1.03586227399732
H           -3.07035542568470        1.82136222089536        0.22145217050935
H           -0.87406972999020        3.53763783819895        0.66503282070524
H           -1.24712861537942       -3.21708362184213        0.81966881315826
H           -1.18137461531336       -3.24847240234477       -0.96749896863128
H           -2.59635076239612       -2.57116302177001       -0.13828459681539
H            1.36742839007083       -3.04387552096266        0.03692289726423
