25
 energy: 39.356262958927 xtb: 6.6.1 (8d0f1dd)
C            3.48420813458540        1.05401022066346        0.16392292707458
N            2.40761014198905        0.10560420812298        0.06433095410315
C            2.62927650978501       -1.24740674348501       -0.05083188587404
N            1.42592893876312       -1.88421842372435       -0.14243418650471
C            0.42461228600522       -0.97436786612115       -0.04556096259277
C            0.97293430649326        0.31571753947112        0.06566386992771
C            0.11645429975731        1.43985548796025        0.13749149225893
O            0.25922075865034        2.63802556683732        0.26312077640181
N           -1.67369910613451        1.16414465292549       -0.04138607581871
C           -2.67373457241127        2.23781604571843       -0.27046781291070
C           -2.04021819998993       -0.07747687838897        0.19310874398541
O           -3.10886197643312       -0.54652115419003        0.46280024303317
N           -0.91148443058919       -1.17322304311611       -0.03184253874076
C           -1.31702071290291       -2.56177895831882       -0.12284642212626
H            3.62488635469003        1.42022293091133        1.19139547281391
H            4.40497030357859        0.61327566603511       -0.24912225323058
H            3.28906926490076        1.95793035897247       -0.39875080275125
H            3.55440082271119       -1.73583581799483       -0.22990182953873
H           -2.06313499918729        3.11777455700888       -0.48296626751555
H           -3.38379242880056        1.98383633565186       -1.08147118238654
H           -3.33061308252325        2.49023550954921        0.56159994518694
H           -0.71822829337128       -3.24214814844123        0.51121656016843
H           -1.26729961165995       -2.86018655037441       -1.17537504463578
H           -2.34902467769280       -2.66533753620853        0.22576441884647
H            1.32273515226567       -2.87452088589074       -0.24781670422936
