25
 energy: -1.305766391143 xtb: 6.6.1 (8d0f1dd)
C            3.34092581865381        1.14289526836097        0.12426709995358
N            2.33891542387741        0.12153889252629        0.01058142265579
C            2.59402398153350       -1.25936364262379        0.00829157601229
N            1.37292070484226       -1.90149080708484       -0.04559896770510
C            0.38806726796007       -0.98558384333129       -0.01277094688804
C            0.92073176343399        0.29664933084021        0.02565466301333
C            0.04903299956209        1.42155717965004        0.05599088581142
O            0.36846327899398        2.60635362099068        0.03724232475315
N           -1.40200882879730        1.07215982484742        0.03735806781790
C           -2.36993859759533        2.16348512448290       -0.13159493350269
C           -1.89532179463566       -0.18795965788342        0.10965501890967
O           -3.07886413673991       -0.44259357452240        0.10545696764056
N           -0.95191599331615       -1.24000074854521        0.03589685376106
C           -1.41371989194267       -2.61118558395458       -0.07207281932544
H            3.74010864156355        1.25032394440725        1.16184971379584
H            4.18449207996246        0.92046681082956       -0.54417310453501
H            2.90454261678936        2.08898917156561       -0.18417387275758
H            3.55025089015877       -1.74424809087881       -0.00488013619199
H           -1.77190499248598        3.07332776504325       -0.19780956733297
H           -2.99081849163132        2.04732790758453       -1.03434311596464
H           -3.03659990637584        2.22074901555661        0.73167142025845
H           -1.00844405404917       -3.22872277144032        0.73698739923354
H           -1.15670189547070       -3.05379944245894       -1.04336309798668
H           -2.49875449946272       -2.58287794603357        0.03575102289041
H            1.26824659133573       -2.90555760952413       -0.06872885293962
