25
 energy: -42.108038674267 gnorm: 0.002353794167 xtb: 6.6.1 (8d0f1dd)
C            3.08565246633410        1.04330869235125        0.26791116708548
N            2.21147676752431        0.04426871415017        0.21880065820628
C            2.46803455102935       -1.28390358289107        0.23418515526925
N            1.30248847783844       -1.98246888758428        0.15367742894319
C            0.27835732374240       -1.09144757616369        0.08695177576704
C            0.82772856952943        0.17932692686890        0.12962716859882
C            0.00848133314802        1.36883340113178        0.08774431779656
O            0.41122671732289        2.50703301705203        0.11442640933458
N           -1.34846059901436        1.04513115747380        0.01348734747594
C           -2.29950224033002        2.14729409033509       -0.02008233501923
C           -1.91964170226830       -0.21245862760555       -0.04295839073228
O           -3.10426248894702       -0.37831584495292       -0.12002271726791
N           -1.04116091900129       -1.31847912073827       -0.00565407137861
C           -1.59477054102548       -2.65664411580342       -0.06554509687079
H            4.13336830963274        0.82403365900154        0.35301940054680
H            5.21186946167527        1.95175562713624       -1.74178728548839
H            2.71493053177149        2.05242050314321        0.24252053097658
H            3.43777269836170       -1.72798122864043        0.31024946164375
H           -1.73912934713519        3.07906352283110       -0.01064714178175
H           -2.91181188817322        2.07933043207302       -0.91914193528674
H           -2.95817582509763        2.09373343026381        0.84704251665969
H           -1.33094972415541       -3.22081363888857        0.82893237417905
H           -1.24004119572134       -3.17585550318926       -0.95643746157797
H           -2.67862481365085       -2.55934243050606       -0.11884285192413
H            1.23557559071115       -2.98958407524929        0.14371519274395
