25
 energy: -42.442123878802 xtb: 6.6.1 (8d0f1dd)
C            3.25314188566686        1.14431171548198        0.04446015816874
N            2.32915363479981        0.04812467711928        0.01902057748800
C            2.63576867641028       -1.26213583177219       -0.00578854179134
N            1.49876427039357       -1.98964692354562        0.00151495268806
C            0.43938519425607       -1.14327191780259        0.03789005640677
C            0.93831851703363        0.16582178544781        0.05149037818662
C            0.11597029494981        1.30651666670509        0.07497325001920
O            0.46968927074093        2.48703786450382        0.07365962803289
N           -1.27642914743235        0.95578499052742        0.11071705383895
C           -2.16936880962534        1.95778594743838        0.16135638216085
C           -1.79288507116319       -0.34989190472697        0.09549017154676
O           -2.98635932682965       -0.57285820927398        0.11991868814313
N           -0.88398918858243       -1.41035470212495        0.05581291876089
C           -1.37772727241006       -2.77057966153024        0.02866891337987
H            3.74360748263308        1.21067614739815        1.01844156583826
H            4.01369582532282        1.01506611155448       -0.72598358056835
H            2.69279543612698        2.06258372276601       -0.13200706539320
H            3.62559518636926       -1.66182208342212       -0.03769875707911
H           -1.79758706233408        2.96090079865065        0.15148497307477
H           -3.25696496159106        4.43798905274841       -1.54409271835298
H           -3.21374868322035        1.71947874207491        0.18120359474638
H           -1.06224134007058       -3.31270344155170        0.92251113938338
H           -1.02200905244913       -3.28842603764922       -0.86406596631204
H           -2.46549379328463       -2.72038946064560        0.00580230705289
H            1.45904926086986       -2.99644664532460       -0.01574134067818
