25
 energy: 0.000000000000 xtb: 6.6.1 (8d0f1dd)
C            3.23720163006194        1.16630919979326        0.08434469647475
N            2.29877817382611        0.07527477071623        0.03981603040599
C            2.58028210190900       -1.21425402444508        0.03006176031096
N            1.43813958087363       -1.93419271955128        0.00098261760884
C            0.39035688448383       -1.05887472636071       -0.00790371836672
C            0.93510056364412        0.21347819449412        0.01709077491437
C            0.09450143893243        1.40504303904423       -0.00410947031874
O            0.49712751527797        2.54126714362870       -0.00342325688240
N           -1.25076640035757        1.06271879480407       -0.03085478223738
C           -2.21907211982101        2.15522099834493       -0.05001256985998
C           -1.81739487048744       -0.20012725993278       -0.04692818574614
O           -2.99983886758376       -0.37846417018721       -0.07008878229737
N           -0.92618586207120       -1.30210215599479       -0.03682761578324
C           -1.46982264913417       -2.64643102187190       -0.06029820460571
H            3.71247264356769        1.21471455160235        1.06488849150277
H            4.00791497605742        1.03430808813993       -0.67357694370751
H            2.69910007168542        2.09770118228144       -0.09130154882931
H            3.56654120610678       -1.63682992603973        0.04233140067262
H           -1.67107961066214        3.09322851271934       -0.02552706933167
H           -2.82428953597071        2.09428624779827       -0.95318082946668
H           -2.87644029173232        2.07745725625962        0.81450067533302
H           -1.17061996399332       -3.19584890659852        0.83242232437030
H           -1.14560257411436       -3.17511610292205       -0.95688275822323
H           -2.55549792440841       -2.55659984320617       -0.07459039797972
H            1.38130855184625       -2.94313852034425       -0.01389874181052
25
 energy: -3.088485187224 xtb: 6.6.1 (8d0f1dd)
C            3.22836932950392        1.17804819787311        0.07548576706651
N            2.29924533772253        0.09095040606756        0.03255339655278
C            2.59679289565722       -1.23483057602686        0.03102015350651
N            1.42867664801074       -1.94831097720565        0.00555197084419
C            0.39307711192774       -1.06842334232417       -0.00759032496620
C            0.92213103001826        0.21180363802699        0.01169851511388
C            0.09555604140339        1.38495697007229       -0.00721796356167
O            0.49164614923818        2.55018861136904       -0.01209868139568
N           -1.26522318011197        1.04920148873990       -0.03212440402433
C           -2.18689011796473        2.18911421345779       -0.03427045798665
C           -1.82816265814468       -0.21113640772971       -0.05374386677531
O           -3.02380718691133       -0.40163185089263       -0.07244208990556
N           -0.93676984419141       -1.31566806037392       -0.03655571120645
C           -1.46052790901640       -2.66637120479776       -0.05272146450117
H            3.70422043412088        1.23215184352328        1.05795912498781
H            3.99764756764802        1.04243995178349       -0.68582463645532
H            2.67662872987750        2.09862121629332       -0.10653985746237
H            3.57721947450631       -1.65445792562853        0.04518253209504
H           -1.66543488267864        3.17392401785216        0.04861221945408
H           -2.73982436605092        2.20868467879026       -0.94640428767246
H           -2.93853823272012        2.03963172824281        0.74232854331768
H           -1.15258065549379       -3.21202058042175        0.84203247684866
H           -1.12318271819374       -3.20122986243348       -0.94346366719812
H           -2.54681605649904       -2.59404544480947       -0.07011281252109
H            1.36876172627829       -2.95256212727605       -0.00428057800744
25
 energy: 2.399655675331 xtb: 6.6.1 (8d0f1dd)
C            3.21055557716623        1.18798329258094        0.05824738397649
N            2.29325139233264        0.10180961510012        0.01876109062710
C            2.60847565483375       -1.25685900803935        0.03308310643723
N            1.41502300220328       -1.96139452827156        0.01326502197265
C            0.39329544962771       -1.08247713394992       -0.00564843721663
C            0.90328991846202        0.20542512976752        0.00239187230949
C            0.09572278115108        1.35351930093029       -0.01555892919765
O            0.47542850229096        2.54053297969154       -0.03251910780756
N           -1.28794765810575        1.03744672116371       -0.02969838817813
C           -2.14905377410123        2.23604691126310       -0.00890468007849
C           -1.84062378671171       -0.22221840875414       -0.05416996317228
O           -3.04227343068883       -0.43431507973026       -0.07259561213441
N           -0.95061979936961       -1.33047267848129       -0.03346346958644
C           -1.44366946230812       -2.69343385366007       -0.03989194531631
H            3.68809683667725        1.25839638145832        1.04133990874331
H            3.98090385802721        1.05517220291419       -0.70463839750096
H            2.64302952398805        2.09729936840296       -0.13220915437690
H            3.58379824094469       -1.66938894433537        0.04958975189744
H           -1.64904051134204        3.26654802553459        0.20119106832611
H           -2.58908577621352        2.41371747651523       -0.97310468637934
H           -3.04321650542457        1.97341770657189        0.62476966371687
H           -1.12327159509650       -3.23206097174735        0.85840570620082
H           -1.08676122709810       -3.23768742519734       -0.92120461932758
H           -2.53142777928700       -2.65488498712091       -0.06212212129800
H            1.35833523597832       -2.96309349043496        0.01171883351046
25
 energy: 11.168151677794 xtb: 6.6.1 (8d0f1dd)
C            3.18931293746634        1.19355685374119        0.04153777113725
N            2.28358626639948        0.10129946376228        0.00605006213835
C            2.60964474396796       -1.27274903106729        0.03465653305538
N            1.40608619520996       -1.97245166504810        0.01979209200059
C            0.38990222996466       -1.09817724732578       -0.00348904534965
C            0.88780953261161        0.19478885843802       -0.00669016006310
C            0.08945804773832        1.33185982314069       -0.02798246556365
O            0.45579805899838        2.52699198440897       -0.05652695004223
N           -1.31203185297936        1.03365854952189       -0.02122251102826
C           -2.12760073704557        2.27284412063362        0.01678026031996
C           -1.85350534224393       -0.23150495760759       -0.04537410145971
O           -3.05384868666797       -0.46643572314569       -0.06749433278880
N           -0.96100541828412       -1.34286671778262       -0.02921571718712
C           -1.42565750849503       -2.71826985367802       -0.02939468916200
H            3.66662054017488        1.28167880878855        1.02456459708192
H            3.96249962060545        1.06793420783422       -0.72041476244603
H            2.60952974486675        2.09489823012667       -0.15623719804697
H            3.58538699389361       -1.67794818821639        0.05299383303061
H           -1.64052688491851        3.32494997543856        0.34999820303428
H           -2.42387572115318        2.61394250660593       -0.99193449933512
H           -3.12531201282442        1.93625467529549        0.49789899141023
H           -1.09441090934836       -3.24809680649413        0.87256418962026
H           -1.04891000881475       -3.26651062085335       -0.90260210854344
H           -2.51435670802614       -2.71584562276606       -0.05748965453227
H            1.35762154684014       -2.97477302157921        0.02626555886677
25
 energy: 16.085725236832 xtb: 6.6.1 (8d0f1dd)
C            3.16892844162086        1.19450987169388        0.03238468004284
N            2.27324843936842        0.09208612528327       -0.00174013296751
C            2.60254552379545       -1.28111954402630        0.03587284225741
N            1.40169087380749       -1.97993845613692        0.02336700737026
C            0.38378534381807       -1.11148255709166       -0.00243161056263
C            0.87795569612091        0.18299554827032       -0.01375756924779
C            0.08066407433083        1.32178072552638       -0.04275414495563
O            0.43849030487591        2.51271874389263       -0.08093916524200
N           -1.33107326301349        1.03844649565017       -0.00869979010359
C           -2.11933374971918        2.29870636206519        0.03357780072974
C           -1.86452906482568       -0.23603630529316       -0.02967386013665
O           -3.05814907084483       -0.49023434999763       -0.05838841802738
N           -0.96758813087743       -1.35041466564172       -0.02628699800503
C           -1.41042241301785       -2.73646513280822       -0.02685234082876
H            3.64294942076047        1.29671820655885        1.01557178862175
H            3.94619350678204        1.07846698082398       -0.72653692415603
H            2.58066937624791        2.09076538085403       -0.17029945682252
H            3.58213683792284       -1.68050866629731        0.05570690162634
H           -1.65279877778351        3.35886646872248        0.43234555117827
H           -2.29311733593120        2.73116281320162       -0.95802207741337
H           -3.14622926334343        1.95075190607107        0.38856817643720
H           -1.07267610788369       -3.25955220644547        0.87744676344751
H           -1.01564699151566       -3.28221686603535       -0.89472966587864
H           -2.49865366104889       -2.76631710398459       -0.06198067677572
H            1.36317465828987       -2.98466117268372        0.03528521555917
25
 energy: 16.873984907656 xtb: 6.6.1 (8d0f1dd)
C            3.15571698587170        1.19165360320014        0.02464532707993
N            2.26602612141990        0.07900066708872       -0.00788026983110
C            2.59001183273927       -1.27740445429632        0.03271285556368
N            1.40377480200252       -1.98131339273707        0.02482434934082
C            0.37631757039270       -1.11852190375375       -0.00122369993431
C            0.87575812370824        0.17441292548005       -0.01551953752793
C            0.07059142483295        1.32406345175219       -0.04582513493572
O            0.42443436653980        2.50404487296836       -0.09986316714519
N           -1.34036155591575        1.04566482244439        0.01265658532982
C           -2.13066082161898        2.30159613835144        0.04261285410358
C           -1.87315797266587       -0.23720970787305       -0.01510156020652
O           -3.05792455852665       -0.50229826141752       -0.04470467492197
N           -0.96903923987051       -1.35233165524886       -0.02271321064777
C           -1.40421894986170       -2.74269689654288       -0.02466184871031
H            3.62554137475452        1.29913090002559        1.00756568367354
H            3.93495442086612        1.08125269049023       -0.73170775699472
H            2.56483230839669        2.08581251485689       -0.17998860923996
H            3.57508772159795       -1.67367756206644        0.05048071901391
H           -1.69055595364306        3.35401172753894        0.50384646667388
H           -2.15153415008517        2.78202472250144       -0.91526856641956
H           -3.15458209154263        1.96971952586574        0.26807944316342
H           -1.06555122702067       -3.26025869324690        0.88148405661571
H           -0.99942452886493       -3.28014069061689       -0.89123263544371
H           -2.48887624947280       -2.78898926065166       -0.06502803517871
H            1.37505491390255       -2.98851748194096        0.03884426272643
25
 energy: 19.051635307735 xtb: 6.6.1 (8d0f1dd)
C            3.15109774046727        1.19010391975403        0.01161805316239
N            2.26294810663759        0.07371396699174       -0.01770134100494
C            2.58168445743989       -1.26730833125293        0.02347873871710
N            1.40753311481758       -1.97909149108844        0.02370480188015
C            0.37107654795675       -1.11956417313191        0.00330702987734
C            0.87541211024030        0.17237671117159       -0.01186682579514
C            0.06242383481727        1.32583805302896       -0.02972952203614
O            0.41307356662945        2.50296062453878       -0.11010458515595
N           -1.34164580904077        1.04233042350491        0.05333320711492
C           -2.14172894858674        2.29089184464535        0.05124282883736
C           -1.87990738967745       -0.24082685686876        0.00685893835343
O           -3.06076634393022       -0.50837576521409       -0.02316841369315
N           -0.96879422283431       -1.35355039514292       -0.01283420966750
C           -1.40608007776674       -2.74273613980170       -0.01748144035647
H            3.61993785357065        1.29529249615608        0.99384808925875
H            3.92866193906915        1.07784624652817       -0.74515839644863
H            2.56038995823609        2.08314382972592       -0.19307452204374
H            3.56936718482188       -1.66253654391524        0.03419214418969
H           -1.74129672030541        3.33102764026156        0.60820753073150
H           -1.95672223386035        2.83561581856869       -0.90989393182955
H           -3.22497879353950        1.94880438438524        0.10750861580582
H           -1.06704118995710       -3.25792191884221        0.88876775300685
H           -0.99944974164568       -3.27217299462955       -0.88592783739033
H           -2.48797934215043       -2.79019589638828       -0.05831303350287
H            1.38499906652707       -2.98663685081322        0.03622022413635
25
 energy: 16.090015325636 xtb: 6.6.1 (8d0f1dd)
C            3.15438473274818        1.18955890903912        0.01268527513454
N            2.26283848761426        0.07464924262323       -0.01875111873892
C            2.57732017309318       -1.25537757365392        0.02065743403084
N            1.40986519807230       -1.97369233313045        0.02176401978508
C            0.36847359732373       -1.11350683367030        0.00570648889851
C            0.87703911292300        0.17668751655081       -0.00800580801836
C            0.05913538604914        1.32881473130006       -0.02028074495508
O            0.41250915926796        2.50501904304854       -0.11108453702676
N           -1.33393731512054        1.03641947769087        0.07244280506353
C           -2.14521868523237        2.27954440229441        0.03868774651630
C           -1.88081310997274       -0.24150225179526        0.01793282913599
O           -3.06195388813139       -0.50010222958370       -0.01475557665695
N           -0.96729644124528       -1.35178462681520       -0.00863205788609
C           -1.41245638746607       -2.73786447120942       -0.01979028146909
H            3.62240771958468        1.28845329701774        0.99567000826044
H            3.93162794010396        1.07353837826003       -0.74351282185837
H            2.56674329966694        2.08403362370699       -0.19071190483498
H            3.56462529712859       -1.65414779785380        0.02737275073071
H           -1.78142855246462        3.30257879341643        0.59677360530248
H           -1.92328483728237        2.79628974863366       -0.86983068996197
H           -3.19437190715177        1.95839842658795        0.06068920978970
H           -1.07564755907130       -3.25677133462359        0.88423451120703
H           -1.00876228827545       -3.26378366782568       -0.89105272453911
H           -2.49510970687354       -2.77585519467938       -0.06037189900056
H            1.38552524264777       -2.98056867315735        0.02919737723835
25
 energy: 15.549633452494 xtb: 6.6.1 (8d0f1dd)
C            3.15563638526544        1.19220016851001        0.00997119339686
N            2.26201686615784        0.07987038779599       -0.02235633192198
C            2.57886239763639       -1.25247721203484        0.01782841083436
N            1.40945875266605       -1.97273004078385        0.02077358182656
C            0.36866616289598       -1.11124361409849        0.00860799257771
C            0.87461022600704        0.17988270883541       -0.00582637206899
C            0.05406076287014        1.32649058758955       -0.01326443271163
O            0.40725570536559        2.50600002648791       -0.10830088053352
N           -1.33558293667689        1.02927785468669        0.09196020112046
C           -2.14605241797777        2.27691896358815        0.03279640331182
C           -1.88248112843249       -0.24493448623129        0.02677444405968
O           -3.06578179563624       -0.50120824698494       -0.00667163108994
N           -0.96786764617172       -1.35358054658586       -0.00318117677771
C           -1.41479273709044       -2.73867101661431       -0.01775351939101
H            3.62559824706370        1.28862240121346        0.99297607850395
H            3.93241593443671        1.07344562621122       -0.74678137121482
H            2.56917837781421        2.08751292961285       -0.19265954744912
H            3.56480367422278       -1.65336066176078        0.01972454360163
H           -1.82100009924930        3.29025243815778        0.61751148308768
H           -1.85720764960812        2.80843765807092       -0.85918043036131
H           -3.18963750820348        1.95363560754009        0.00357070135192
H           -1.07870123729365       -3.26198544559193        0.88422374383767
H           -1.01478661666219       -3.26478822569800       -0.89111454916773
H           -2.49897605704650       -2.76973423099381       -0.05707816903728
H            1.38251900558318       -2.97880502875012        0.02448353036199
25
 energy: 15.135109003428 xtb: 6.6.1 (8d0f1dd)
C            3.15926421378522        1.19491565365935        0.00712902255069
N            2.26243128904597        0.08711886204422       -0.02602889324212
C            2.58433688882850       -1.25441459916324        0.01482930793891
N            1.40777710419911       -1.97310733392197        0.01906205302493
C            0.37176725147549       -1.10835646549344        0.01089790589027
C            0.87288581746509        0.18371559916800       -0.00342212796557
C            0.05182964519211        1.32457613700444       -0.00439934441166
O            0.40795399683233        2.50724629538056       -0.09243725713891
N           -1.33656694236508        1.02529009017578        0.11265352002159
C           -2.14312789685147        2.28063230769512        0.02397504529055
C           -1.87994053632435       -0.24547537655481        0.03169405135520
O           -3.06694790666994       -0.49801471282941       -0.00243196936654
N           -0.96783766720634       -1.35417321227133        0.00225756886683
C           -1.41701137422585       -2.73783829436730       -0.01454491287345
H            3.63321386345095        1.28941923813164        0.98953393800285
H            3.93473534694010        1.07408200523945       -0.75150709172344
H            2.57437510317348        2.09205896900758       -0.19354424013975
H            3.56745871242668       -1.65852460132072        0.01008863945005
H           -1.87379673172217        3.28189952437567        0.63138005502100
H           -1.80116980779604        2.80647736587532       -0.84118887541486
H           -3.19454333903708        1.94334706893029       -0.05940778470242
H           -1.08126114279605       -3.26744897800755        0.88460854322329
H           -1.02460591161999       -3.26695048853882       -0.89067759270343
H           -2.50365336061386       -2.75912601900124       -0.05014074588560
H            1.37464805234946       -2.97832043304585        0.01865508107883
25
 energy: 14.009719186928 xtb: 6.6.1 (8d0f1dd)
C            3.16018216970105        1.19562700289205        0.00710997659285
N            2.26212512771611        0.08924443032603       -0.02565676354373
C            2.58633834445670       -1.25587329112941        0.01483917183337
N            1.40740079584300       -1.97317063383568        0.01853433263224
C            0.37297230777791       -1.10819529939923        0.01045918795583
C            0.87220583299707        0.18405237161323       -0.00290528012163
C            0.04980503721614        1.32466246146178       -0.00216469037057
O            0.40730727916679        2.50786099419692       -0.08226302635005
N           -1.33961609671930        1.02473173045788        0.11186814011160
C           -2.14715651834935        2.27964905372790        0.02021392097140
C           -1.87913434081638       -0.24676783739988        0.02835132023796
O           -3.06697967366080       -0.49879069601795       -0.00746587699056
N           -0.96769304908024       -1.35472286160437        0.00245520707167
C           -1.41726282375896       -2.73760069136835       -0.01313280378344
H            3.63570452927656        1.28988613547559        0.98888708337616
H            3.93476739404444        1.07480903382093       -0.75263852781357
H            2.57630738959292        2.09373877477223       -0.19252097729851
H            3.56892819861845       -1.65992747403133        0.00817292461746
H           -1.88425105084344        3.27072945449966        0.62717450212273
H           -1.79859737984622        2.81235692554768       -0.84597696842340
H           -3.18122959723074        1.94667803064826       -0.05380599300083
H           -1.08063493363046       -3.26726547795794        0.88574567271176
H           -1.02767457314873       -3.26783119931524       -0.89002634523607
H           -2.50419814452627       -2.75649599922426       -0.04641562696028
H            1.37259844314001       -2.97835633598470        0.01819533580485
25
 energy: 13.879604471928 xtb: 6.6.1 (8d0f1dd)
C            3.15994804534164        1.19452346663794        0.00664979382098
N            2.26202466942007        0.08764022258464       -0.02521001468247
C            2.58547254778668       -1.25610578778523        0.01472051406291
N            1.40762112030454       -1.97303473599117        0.01809270297353
C            0.37264321307678       -1.10869719136700        0.01029101309723
C            0.87298456006772        0.18303389361776       -0.00250307805405
C            0.05088566031392        1.32573325873303       -0.00090154413786
O            0.40868483177645        2.50780542538911       -0.08082760366715
N           -1.33903697750482        1.02685837251966        0.11010165797248
C           -2.14702367178084        2.28017330815830        0.01997511844466
C           -1.87862765923152       -0.24593139346443        0.02835187662527
O           -3.06572749444605       -0.49809913650703       -0.00941425061561
N           -0.96755015877339       -1.35396327613417        0.00257918984488
C           -1.41708781311911       -2.73683718769329       -0.01269792549562
H            3.63546924122042        1.28908371351737        0.98806430011399
H            3.93402588395274        1.07427391674435       -0.75350047354815
H            2.57612691350721        2.09272606729343       -0.19263644615843
H            3.56861510661147       -1.65923354685014        0.00764237301611
H           -1.88229421736573        3.26974425220465        0.63039962277198
H           -1.80096581273810        2.81135449022937       -0.84660843286750
H           -3.18751513367470        1.94593339284739       -0.05549390945526
H           -1.07959089643746       -3.26528836049953        0.88632459986196
H           -1.02703591796919       -3.26639134285444       -0.88953185961021
H           -2.50354263410837       -2.75777328358197       -0.04554252737210
H            1.37371126170586       -2.97849993557681        0.01870919920566
25
 energy: 13.548510508806 xtb: 6.6.1 (8d0f1dd)
C            3.15973024872527        1.19389491054447        0.00643378624208
N            2.26166867717993        0.08700318714529       -0.02440473044717
C            2.58512282621234       -1.25661927826604        0.01516744879547
N            1.40751787895199       -1.97294809289415        0.01758421543737
C            0.37242146053289       -1.10910022821920        0.01012032219203
C            0.87322863971670        0.18232336048835       -0.00226508784672
C            0.05165208815442        1.32621308472809       -0.00033257627698
O            0.40984906411896        2.50774469935637       -0.07861489981413
N           -1.33915857906334        1.02824434719226        0.10684579556188
C           -2.14626074829606        2.28111821761219        0.01861827970212
C           -1.87826467755492       -0.24568754883674        0.02726329642631
O           -3.06513647491985       -0.49763313521773       -0.01193004958828
N           -0.96775743877692       -1.35341120264178        0.00288545201527
C           -1.41684755929052       -2.73643869669337       -0.01203555092268
H            3.63563143623808        1.28876079029298        0.98746114792403
H            3.93320123507955        1.07387322047014       -0.75427422204975
H            2.57594982343823        2.09229334187930       -0.19247242875574
H            3.56871028679468       -1.65858900126252        0.00710578831273
H           -1.88182220236580        3.26558761246822        0.63278778555046
H           -1.80465565908241        2.81373014554230       -0.84716608469641
H           -3.18888059573981        1.94607186425269       -0.05477840338396
H           -1.07826132787273       -3.26405280984363        0.88693577638148
H           -1.02661219113601       -3.26561463377270       -0.88898336552358
H           -2.50306604250742       -2.75911598446515       -0.04437499160589
H            1.37425449939902       -2.97861956768788        0.01945719251734
25
 energy: 13.081450260168 xtb: 6.6.1 (8d0f1dd)
C            3.15964073643018        1.19354800596586        0.00618624421883
N            2.26138670678454        0.08676944082108       -0.02361377094220
C            2.58484443159505       -1.25692863169615        0.01600115656665
N            1.40732128511741       -1.97285297003867        0.01711277977338
C            0.37217514084059       -1.10926254645191        0.00995467447111
C            0.87330016498673        0.18203741569097       -0.00231265645114
C            0.05222194842033        1.32643794408136       -0.00053797770875
O            0.41056481878522        2.50779270478149       -0.07738707921973
N           -1.33934121940653        1.02903777440334        0.10369057190826
C           -2.14563631888797        2.28152232084593        0.01733256419505
C           -1.87814702784223       -0.24568921069400        0.02615392664453
O           -3.06503627986315       -0.49721291087872       -0.01325056934950
N           -0.96810046320580       -1.35289697895718        0.00327957388406
C           -1.41671058988557       -2.73617281276170       -0.01142450921123
H            3.63595418739555        1.28872385829577        0.98692323792642
H            3.93262112537275        1.07338121265499       -0.75494741412646
H            2.57584584111504        2.09205109356530       -0.19256220524860
H            3.56880517914729       -1.65790503528898        0.00647762187282
H           -1.88402671085065        3.25938679248064        0.63699185237907
H           -1.80461806481026        2.81769899145257       -0.84747961676387
H           -3.18902677822607        1.94666206157467       -0.05545307042543
H           -1.07733678163113       -3.26332725666519        0.88743756733496
H           -1.02634607188585       -3.26512033122843       -0.88848071204116
H           -2.50277204230064       -2.76001722803521       -0.04350124196805
H            1.37463145074141       -2.97863510174607        0.02044294842823
25
 energy: 12.825711419670 xtb: 6.6.1 (8d0f1dd)
C            3.15969479239288        1.19370143463441        0.00636205724193
N            2.26156028341649        0.08686331791725       -0.02300993928659
C            2.58475684845639       -1.25693514309069        0.01733995352968
N            1.40714185065644       -1.97290171599183        0.01715405028195
C            0.37205971283265       -1.10914468827639        0.00973383901402
C            0.87326877834205        0.18230368365922       -0.00282994984198
C            0.05260159723911        1.32619938008679       -0.00222573559183
O            0.41055294297153        2.50787975702638       -0.07927661314841
N           -1.33916775649019        1.02881158799208        0.10119680123687
C           -2.14468824155069        2.28153164530632        0.01704741982975
C           -1.87835956675062       -0.24577921364317        0.02561861210168
O           -3.06546094977061       -0.49702584520329       -0.01236122029314
N           -0.96835568630889       -1.35269902538499        0.00308460570582
C           -1.41666519817967       -2.73624150401826       -0.01168957021326
H            3.63596787310286        1.28921383054641        0.98716884320754
H            3.93279560089981        1.07322541265173       -0.75461538236511
H            2.57565562691783        2.09198011375150       -0.19274230008641
H            3.56878795650001       -1.65776128265513        0.00664442490694
H           -1.88446961304996        3.25570810161321        0.63882458369028
H           -1.80641548023807        2.82007963294870       -0.84687938854345
H           -3.18766545336886        1.94748671664992       -0.05355240210278
H           -1.07749219335212       -3.26343706612911        0.88726634272092
H           -1.02587727367754       -3.26525665528420       -0.88857827192633
H           -2.50273568491689       -2.76015613176668       -0.04419471742765
H            1.37472390186231       -2.97861774116842        0.02154785350677
