25
 energy: 0.000000000000 xtb: 6.6.1 (8d0f1dd)
C            3.23720163006194        1.16630919979326        0.08434469647475
N            2.29877817382611        0.07527477071623        0.03981603040599
C            2.58028210190900       -1.21425402444508        0.03006176031096
N            1.43813958087363       -1.93419271955128        0.00098261760884
C            0.39035688448383       -1.05887472636071       -0.00790371836672
C            0.93510056364412        0.21347819449412        0.01709077491437
C            0.09450143893243        1.40504303904423       -0.00410947031874
O            0.49712751527797        2.54126714362870       -0.00342325688240
N           -1.25076640035757        1.06271879480407       -0.03085478223738
C           -2.21907211982101        2.15522099834493       -0.05001256985998
C           -1.81739487048744       -0.20012725993278       -0.04692818574614
O           -2.99983886758376       -0.37846417018721       -0.07008878229737
N           -0.92618586207120       -1.30210215599479       -0.03682761578324
C           -1.46982264913417       -2.64643102187190       -0.06029820460571
H            3.71247264356769        1.21471455160235        1.06488849150277
H            4.00791497605742        1.03430808813993       -0.67357694370751
H            2.69910007168542        2.09770118228144       -0.09130154882931
H            3.56654120610678       -1.63682992603973        0.04233140067262
H           -1.67107961066214        3.09322851271934       -0.02552706933167
H           -2.82428953597071        2.09428624779827       -0.95318082946668
H           -2.87644029173232        2.07745725625962        0.81450067533302
H           -1.17061996399332       -3.19584890659852        0.83242232437030
H           -1.14560257411436       -3.17511610292205       -0.95688275822323
H           -2.55549792440841       -2.55659984320617       -0.07459039797972
H            1.38130855184625       -2.94313852034425       -0.01389874181052
25
 energy: -2.193767158098 xtb: 6.6.1 (8d0f1dd)
C            3.22640456518630        1.17783632448570        0.07431356422861
N            2.29789766772829        0.09039264675015        0.03202124143449
C            2.59638107044565       -1.23477623178502        0.03112284467493
N            1.42920042570031       -1.94935442362047        0.00601895439782
C            0.39278162718010       -1.07032819346102       -0.00746022640929
C            0.92095710499748        0.21020671424894        0.01123844551174
C            0.09451165846087        1.38315449064124       -0.00783297703157
O            0.49009817133703        2.54833855341599       -0.01356000849506
N           -1.26582084275703        1.04863443789025       -0.03213062612215
C           -2.18130754343559        2.19531037077732       -0.03172019806679
C           -1.82855269324966       -0.21317202067258       -0.05397886639875
O           -3.02394542774529       -0.40518123034244       -0.07204155185922
N           -0.93684784538158       -1.31809091809530       -0.03633244157787
C           -1.45921810685423       -2.66966737073690       -0.05194947215884
H            3.70186873740027        1.23257412551614        1.05684851153317
H            3.99594315228803        1.04190566923715       -0.68661098753886
H            2.67456915289401        2.09816377138460       -0.10844532954750
H            3.57713518266765       -1.65301770369457        0.04541568088294
H           -1.66781669133758        3.19153671670222        0.05429262963590
H           -2.72862905353029        2.22289670051558       -0.94118828760767
H           -2.94639440490386        2.03389658845896        0.73128656608555
H           -1.15104420672291       -3.21478859173597        0.84311632501378
H           -1.12116380685855       -3.20476314769483       -0.94235458199036
H           -2.54557568047358       -2.59900839669417       -0.06966119883801
H            1.37078245490037       -2.95367027931900       -0.00337411360971
25
 energy: 6.204258772277 xtb: 6.6.1 (8d0f1dd)
C            3.20646769859515        1.18741950552535        0.05622130915138
N            2.29034765629280        0.10099626273070        0.01783416053167
C            2.60820920447419       -1.25670328639747        0.03326184074572
N            1.41662625309674       -1.96396018592188        0.01398814556658
C            0.39307753083704       -1.08700182653875       -0.00534598564118
C            0.90063408151135        0.20181592100437        0.00139878066361
C            0.09329736772861        1.34932798087762       -0.01750137270482
O            0.47185342511489        2.53673523785848       -0.03655560982400
N           -1.28973108194046        1.03621375330328       -0.02874514242114
C           -2.13769254165540        2.24912047257599       -0.00155112107835
C           -1.84180152540011       -0.22694630929143       -0.05305942371762
O           -3.04302828484837       -0.44345935759935       -0.07068772695015
N           -0.95069840675844       -1.33600552112561       -0.03279951311127
C           -1.44113429801827       -2.70070359484409       -0.03859383898607
H            3.68293823884781        1.25860865054809        1.03962634236505
H            3.97738408205821        1.05323743482229       -0.70575495016596
H            2.63912465714725        2.09637161462851       -0.13590414305588
H            3.58439766132564       -1.66551676596529        0.04986261876084
H           -1.65595973669322        3.30812308688457        0.20853528471532
H           -2.56498681819125        2.44520549793604       -0.95970848298989
H           -3.05859384756968        1.96115187503965        0.59992368295711
H           -1.12049461194073       -3.23866048893813        0.86024335847717
H           -1.08306922398635       -3.24532823575660       -0.91945321829375
H           -2.52896839737959       -2.66522483562031       -0.06135238011982
H            1.36401558528841       -2.96578828356411        0.01315128127273
25
 energy: 18.638578934242 xtb: 6.6.1 (8d0f1dd)
C            3.18350299585596        1.19290844940630        0.03928837239982
N            2.27927031888634        0.10058367119792        0.00502019009476
C            2.60989685926257       -1.27259215817654        0.03485855093009
N            1.40869143824367       -1.97641296087357        0.02055208689222
C            0.38990670376719       -1.10534219514371       -0.00317516845322
C            0.88349020394346        0.18928593214726       -0.00803594333913
C            0.08483242824822        1.32485757895526       -0.03118062209675
O            0.44906547022859        2.52108440214258       -0.06316384334043
N           -1.31648311937998        1.03126648340344       -0.01869439941687
C           -2.11451200304959        2.29037605327574        0.02914790056829
C           -1.85589329176330       -0.23938289069039       -0.04247542828753
O           -3.05539954827364       -0.48214501776382       -0.06430277255195
N           -0.96117124295470       -1.35161263112673       -0.02837859285077
C           -1.42207613820101       -2.72955876866321       -0.02800319845295
H            3.65926819107251        1.28194084431129        1.02287680358733
H            3.95756754020691        1.06493167529209       -0.72133104120911
H            2.60420531058979        2.09384063675275       -0.16100861378048
H            3.58726033381897       -1.67171971234242        0.05316166602602
H           -1.65164065286834        3.38966103398177        0.35475825733984
H           -2.38759626858718        2.66125556171336       -0.96837437108146
H           -3.14160292967264        1.92340771651131        0.46052941839227
H           -1.09060353225645       -3.25897730713420        0.87449808379475
H           -1.04390750129039       -3.27839470128546       -0.90063340126852
H           -2.51077121853367       -2.73129748497035       -0.05669229609494
H            1.36691432064292       -2.97893560874887        0.02779225834599
25
 energy: 27.276950234224 xtb: 6.6.1 (8d0f1dd)
C            3.16200580580663        1.19363003699768        0.02988434769044
N            2.26776896785679        0.09120940016301       -0.00282246337471
C            2.60309404957706       -1.28104232109206        0.03588460584027
N            1.40504045062453       -1.98492296006057        0.02401499200227
C            0.38394919599755       -1.12090169747181       -0.00220581880472
C            0.87225956779913        0.17589069589905       -0.01509560986476
C            0.07373335573957        1.31249099224479       -0.04620146286617
O            0.42813490985390        2.50473803533939       -0.08898514242374
N           -1.33855991834369        1.03570281017278       -0.00412813056476
C           -2.10816455270789        2.31893305509614        0.04861100940994
C           -1.86802307330586       -0.24635031658517       -0.02528897050651
O           -3.05985381422188       -0.51168145409452       -0.05518341614768
N           -0.96782114913898       -1.36170925118886       -0.02554083237638
C           -1.40621730195534       -2.75100773991295       -0.02533729557158
H            3.63443322243701        1.29703946979220        1.01367145022359
H            3.94031121560946        1.07451404143806       -0.72749026931150
H            2.57467337352094        2.08963864110227       -0.17593014258299
H            3.58518846331147       -1.67237182322421        0.05537411801869
H           -1.66842228656541        3.44858893627186        0.43688446478483
H           -2.24327562438111        2.78575895567230       -0.92160885239799
H           -3.16090015786011        1.93860045926124        0.33581682114341
H           -1.06824867142771       -3.27402079139129        0.87944372658813
H           -1.01013593029304       -3.29787378976062       -0.89240974495619
H           -2.49423710776577       -2.78582610460094       -0.06088190907478
H            1.37548167776898       -2.98999867789597        0.03655842127016
25
 energy: 30.018054658987 xtb: 6.6.1 (8d0f1dd)
C            3.15072718918426        1.19092332782268        0.02158912709897
N            2.26095662215767        0.07951271487391       -0.00867651814055
C            2.59182036876157       -1.27667362576631        0.03176964557205
N            1.40807022922701       -1.98622843989282        0.02485497888368
C            0.37737090635866       -1.12815142423266       -0.00105064969789
C            0.86991099438159        0.16772107586405       -0.01563342713089
C            0.06172717228132        1.31397656579747       -0.04516773311877
O            0.41118014197086        2.49655483279071       -0.10344610562452
N           -1.34919947628775        1.04047757387776        0.01900352781847
C           -2.12776435515614        2.31609147067610        0.05641042882002
C           -1.87664783154928       -0.25024103660764       -0.01185442963636
O           -3.05958196116384       -0.52645797846318       -0.04358905429378
N           -0.96843039641980       -1.36534910623699       -0.02210158210120
C           -1.40154755109503       -2.75784332819089       -0.02202504656178
H            3.62027313836140        1.29850271523053        1.00469143761405
H            3.93020108582835        1.07574516466486       -0.73397702665155
H            2.56208069243981        2.08561404291293       -0.18583409698068
H            3.57954216772280       -1.66440141485912        0.04854965558011
H           -1.70762048529413        3.46322683802148        0.51151710641928
H           -2.09364304672612        2.83378665299070       -0.88007835950825
H           -3.16861157925042        1.95395807456699        0.20831420165873
H           -1.06270388116686       -3.27571951063655        0.88440415580623
H           -0.99823937084982       -3.29740486831503       -0.88823921908731
H           -2.48588978936732       -2.80511511968213       -0.06116276874495
H            1.38823368358742       -2.99347659503507        0.03876564815414
25
 energy: 32.752629882012 xtb: 6.6.1 (8d0f1dd)
C            3.14958332898995        1.18884880955248        0.01120858636453
N            2.25881314153423        0.07522871619265       -0.01627691540311
C            2.58385800576337       -1.26502985240932        0.02226642156017
N            1.41227261548715       -1.98250214811551        0.02170744838195
C            0.37282536293851       -1.12705510919622        0.00302619076501
C            0.87073289707935        0.16751298789613       -0.01049563834372
C            0.05417954785951        1.31715249253477       -0.02524691268362
O            0.40205119945510        2.49608725351830       -0.10555518753161
N           -1.34813295140379        1.03600542334016        0.06141414264184
C           -2.14601357061029        2.29765489686247        0.05915946186615
C           -1.88163759915672       -0.25424312444195        0.01080132715982
O           -3.06081855161569       -0.52949698052756       -0.02491093939356
N           -0.96681291498480       -1.36608543982064       -0.01291545007832
C           -1.40565662413983       -2.75605697266393       -0.01686778054094
H            3.61970826881045        1.29229820116530        0.99317948860050
H            3.92681485033157        1.07102860215938       -0.74539704074055
H            2.56309766644055        2.08407783213533       -0.19472117657759
H            3.57368494398901       -1.65321143871868        0.03231777227537
H           -1.75857844690779        3.45782103947701        0.58456950144628
H           -1.92286447899116        2.85231306594714       -0.86078627638689
H           -3.22205921691791        1.93827268163343        0.06030075602379
H           -1.06654933630360       -3.27355984318070        0.88835827332465
H           -1.00426945882985       -3.28864229056021       -0.88608978300544
H           -2.48818074103163       -2.79948963413902       -0.05433699372346
H            1.39616673015053       -2.98990056646903        0.03232462014602
25
 energy: 33.358532560581 xtb: 6.6.1 (8d0f1dd)
C            3.15104531140257        1.18785424121773        0.01167849908187
N            2.25696950176995        0.07395159899876       -0.01790832773398
C            2.57618075336222       -1.25047404560365        0.01899733084020
N            1.41504970448972       -1.97638735719077        0.01912336521771
C            0.36812723536376       -1.12079118903985        0.00485683947834
C            0.87182101077572        0.17135767900130       -0.00758046839949
C            0.04791898899863        1.32146753987735       -0.01557487385601
O            0.39993850717137        2.49647514201002       -0.10695099614736
N           -1.34142750756246        1.02946836324320        0.08807120464302
C           -2.15770084813671        2.28102694701320        0.04408590194590
C           -1.88452017157715       -0.25621066940842        0.02432342428875
O           -3.06261403389108       -0.52162309162529       -0.01572480258547
N           -0.96516692732536       -1.36483953920319       -0.00887551667888
C           -1.41122183969313       -2.75246035763977       -0.01953918414533
H            3.62029825503158        1.28548348501756        0.99418872093067
H            3.92819130928504        1.06707627157673       -0.74400825191930
H            2.56772373040334        2.08472532694565       -0.19264015846751
H            3.56619222028399       -1.64361354846121        0.02578141849172
H           -1.80690095459395        3.44032723242619        0.57372221718698
H           -1.86321984027817        2.80907189551780       -0.79710135368967
H           -3.18067701937728        1.95247853214289       -0.01125689459532
H           -1.07322402969919       -3.27301883845197        0.88316668363730
H           -1.01239392233131       -3.28091334106347       -0.89170184695772
H           -2.49480157209751       -2.78791571279500       -0.05658581301985
H            1.39662680616165       -2.98348796233400        0.02448677860068
25
 energy: 32.913150879596 xtb: 6.6.1 (8d0f1dd)
C            3.15162492076913        1.19071325982898        0.00874035794076
N            2.25657840942384        0.07955924332039       -0.02071563005184
C            2.58019949927477       -1.25210019281458        0.01681860021603
N            1.41410480061703       -1.97752625547375        0.01855155506344
C            0.36974361763966       -1.12084811598340        0.00653296351647
C            0.86868947748203        0.17314799111199       -0.00655706855988
C            0.04421466194785        1.31777221847369       -0.01069778940603
O            0.39519937212100        2.49779730157667       -0.10324359961259
N           -1.34616838705883        1.02321111071972        0.10040624693040
C           -2.15625938229094        2.28134144811572        0.04565884905985
C           -1.88577122790281       -0.26029589375240        0.02799647561218
O           -3.06661833373236       -0.52667252961175       -0.01177392455202
N           -0.96614101612603       -1.36761669407825       -0.00559344455575
C           -1.41128283907697       -2.75485562029962       -0.01664411480043
H            3.62340812079911        1.28725364093395        0.99090690015710
H            3.92788419223410        1.06833136392077       -0.74823224236905
H            2.56846170809203        2.08789815607678       -0.19471076083896
H            3.56873355312868       -1.64582367484026        0.02098489475164
H           -1.82228523685375        3.44257378919701        0.59003012360906
H           -1.81493468810688        2.83647024741771       -0.80774878445861
H           -3.19625050053143        1.94087824108253       -0.03909491418170
H           -1.07297689311126       -3.27786976758189        0.88509934469323
H           -1.01569086113029       -3.28458056112893       -0.89023889291528
H           -2.49587299672590       -2.78581802980480       -0.05194059566750
H            1.39362469705444       -2.98391207423450        0.02249934656674
25
 energy: 32.494231762643 xtb: 6.6.1 (8d0f1dd)
C            3.15353322188662        1.19180430312766        0.00847085421133
N            2.25749833767345        0.08311836351025       -0.02108585789319
C            2.58437216013686       -1.25573315666095        0.01674299416493
N            1.41282668753339       -1.97884174767051        0.01849716980871
C            0.37226061984460       -1.11994155025189        0.00643743434973
C            0.86817877776448        0.17460926572972       -0.00648283051977
C            0.04529388346157        1.31689453258070       -0.00933684235646
O            0.39902032803672        2.49899361003116       -0.09514768200062
N           -1.34639540275734        1.02319639889011        0.10184383999362
C           -2.15158577307477        2.28695874392206        0.04239444387522
C           -1.88298698357655       -0.25901615946854        0.02412163170745
O           -3.06640416637560       -0.52386871645374       -0.01468922617332
N           -0.96614273506533       -1.36727828191815       -0.00543694111771
C           -1.41119911340605       -2.75412246767434       -0.01543774296366
H            3.62703173034936        1.28808687262625        0.99043956112055
H            3.92909358236179        1.06901710732889       -0.74960693351996
H            2.57036658338718        2.08943628776638       -0.19422929574846
H            3.57116145514826       -1.65087529706603        0.01975179478428
H           -1.83240744546280        3.44406050496285        0.58787319132624
H           -1.81974645285293        2.83108718389301       -0.80822312071139
H           -3.20182193812456        1.93346894966000       -0.03890599698149
H           -1.07291746538846       -3.27894276414531        0.88575982893123
H           -1.01869167877025       -3.28644573459096       -0.88956533278267
H           -2.49682460209185       -2.78183592914739       -0.04916123534194
H            1.38870105729845       -2.98480171680947        0.02201018998459
25
 energy: 30.842594041041 xtb: 6.6.1 (8d0f1dd)
C            3.15512053435329        1.19358754858003        0.00809751691181
N            2.25726657047510        0.08769932376032       -0.02149188872577
C            2.58779494408595       -1.25692611872977        0.01625159122313
N            1.41197908009794       -1.97905602328098        0.01784401596922
C            0.37404272519820       -1.11847439585046        0.00630511966153
C            0.86668652809244        0.17654381813044       -0.00620580059381
C            0.04229514803944        1.31599978871434       -0.00643716357044
O            0.39889777986128        2.50033577463687       -0.08427437403304
N           -1.34892011958747        1.02019547750008        0.10641028760989
C           -2.15322510872394        2.28790823864553        0.03631787636959
C           -1.88168158773226       -0.26049227997044        0.02124504261142
O           -3.06773866304305       -0.52275397401396       -0.01833519507258
N           -0.96621680667116       -1.36805506421493       -0.00469502861570
C           -1.41171883998597       -2.75394762792184       -0.01401782223060
H            3.63067634523713        1.28875429893390        0.98971300615322
H            3.92969598037150        1.06975970929023       -0.75127784672725
H            2.57276155654190        2.09206247160873       -0.19353595891705
H            3.57294363608206       -1.65360429550430        0.01746903053461
H           -1.84917533908252        3.43149434561824        0.58417199513484
H           -1.80779393232687        2.83309511718874       -0.81061666559588
H           -3.19099692467316        1.93508707773303       -0.03842863619987
H           -1.07293906086237       -3.28017018328972        0.88645618176940
H           -1.02296471277999       -3.28829504826635       -0.88920066496260
H           -2.49851470035357       -2.77718920611989       -0.04539017990338
H            1.38393963532237       -2.98453017100607        0.02065945734654
25
 energy: 29.634175540585 xtb: 6.6.1 (8d0f1dd)
C            3.15560708910322        1.19331547351179        0.00703776981966
N            2.25664362815784        0.08817880052057       -0.02198508793557
C            2.58757890203094       -1.25600904521030        0.01496829830308
N            1.41197752736495       -1.97832524230090        0.01644184715336
C            0.37397906644530       -1.11755428321270        0.00657825517205
C            0.86680629107920        0.17684927662484       -0.00542525035442
C            0.04092986878974        1.31695765257771       -0.00253972240627
O            0.39949638769238        2.50059057875313       -0.07869754449478
N           -1.34868947393743        1.02032365098665        0.11317293623493
C           -2.15501667304613        2.28833405086216        0.03275657848111
C           -1.88084107142927       -0.26034889145358        0.02402799355384
O           -3.06717941964168       -0.52039686149268       -0.01826780279404
N           -0.96606243586707       -1.36752198583416       -0.00299402038970
C           -1.41238210029951       -2.75281378563296       -0.01342946961262
H            3.63193647728858        1.28779540817393        0.98822642718151
H            3.92941135622265        1.06923726488192       -0.75304485349240
H            2.57399428973748        2.09244336087022       -0.19370151082777
H            3.57255132546318       -1.65298099455137        0.01459189947171
H           -1.86222178009281        3.41864953014879        0.58652069545923
H           -1.78818749943707        2.82901633699986       -0.80634589128489
H           -3.19391548992628        1.93860536726027       -0.05325438726038
H           -1.07280015091690       -3.27940573265117        0.88629216163017
H           -1.02485789013605       -3.28659945467051       -0.88945175754961
H           -2.49941377997432       -2.77548908361530       -0.04353082005304
H            1.38287022326531       -2.98382278937440        0.01908715214211
25
 energy: 27.743288962780 xtb: 6.6.1 (8d0f1dd)
C            3.15497252239904        1.19280205191166        0.00637400046435
N            2.25540134909778        0.08773147440385       -0.02177609668307
C            2.58636234636042       -1.25521701897984        0.01487741663511
N            1.41170220103799       -1.97755268858620        0.01568035303069
C            0.37312954197873       -1.11731378862076        0.00643138074280
C            0.86680942961965        0.17631959096490       -0.00571730473521
C            0.04011866073712        1.31790456460607       -0.00218866578662
O            0.40043262285700        2.50019769115650       -0.07819603497232
N           -1.34867315301068        1.02208343711983        0.11369549420613
C           -2.15464496108975        2.29155318530162        0.03014075340719
C           -1.88061270701370       -0.25969421111750        0.02471507188888
O           -3.06662725520103       -0.51837447979384       -0.01894010269732
N           -0.96660375449704       -1.36649333268970       -0.00198536648584
C           -1.41262428603514       -2.75177415777768       -0.01292444128685
H            3.63128126275229        1.28746293141767        0.98727838872824
H            3.92844798566950        1.06874051823407       -0.75386317496106
H            2.57385905394348        2.09236381559808       -0.19409318537479
H            3.57184384183022       -1.65115945926749        0.01358040170718
H           -1.87100743746738        3.39849439899143        0.59227923130600
H           -1.77489837084614        2.83069830668087       -0.80262663804528
H           -3.19361558363184        1.94208469269389       -0.05983813533513
H           -1.07228921998084       -3.27770096031193        0.88663466717570
H           -1.02439191526095       -3.28449755683451       -0.88913188956677
H           -2.49927054416199       -2.77634811620556       -0.04309334679639
H            1.38311303784952       -2.98328228672367        0.01972111958162
25
 energy: 26.193388499575 xtb: 6.6.1 (8d0f1dd)
C            3.15426787974414        1.19238681266075        0.00626108463546
N            2.25504423798202        0.08668226787627       -0.02123576789276
C            2.58530420144433       -1.25521806464648        0.01563763022088
N            1.41142440282683       -1.97738347542789        0.01581492733204
C            0.37236280266939       -1.11768747731275        0.00633676066415
C            0.86704548448102        0.17565347970615       -0.00617896073277
C            0.04085122111305        1.31813646914122       -0.00401248465010
O            0.40123518488414        2.49961667230669       -0.08213119575299
N           -1.34841119728708        1.02419312780552        0.10976781310490
C           -2.15282265634682        2.29472930964256        0.02921008451448
C           -1.88102925353651       -0.25867821520531        0.02467691927007
O           -3.06649103195437       -0.51778152799258       -0.01837713500431
N           -0.96724904499222       -1.36542052839124       -0.00181281545985
C           -1.41241263859034       -2.75126724802984       -0.01295334422259
H            3.63010240373348        1.28780493512379        0.98717134921834
H            3.92787775306975        1.06854063117997       -0.75371446409915
H            2.57284616675519        2.09173690097995       -0.19464768211226
H            3.57147492669861       -1.64997949545908        0.01408967951442
H           -1.87417467759405        3.38342730652059        0.59985086377545
H           -1.77357936481903        2.83624665650553       -0.80302739506307
H           -3.19289536537147        1.94471788460797       -0.05912875034972
H           -1.07198768019200       -3.27656060799650        0.88688114633215
H           -1.02243997558949       -3.28328147720213       -0.88869783287778
H           -2.49849593764076       -2.77828408688474       -0.04411788449166
H            1.38436682644845       -2.98330164733667        0.02137135027389
25
 energy: 25.562365626766 xtb: 6.6.1 (8d0f1dd)
C            3.15404716619352        1.19233862070646        0.00652910955521
N            2.25559117406541        0.08591450829573       -0.02088032079150
C            2.58496147202450       -1.25564382897083        0.01649220051403
N            1.41129292147119       -1.97762717476767        0.01634235360846
C            0.37216084122182       -1.11807077580944        0.00624768252162
C            0.86735489182799        0.17546060711728       -0.00650355638542
C            0.04213608050683        1.31789891123880       -0.00596158653585
O            0.40129060779142        2.49941451797248       -0.08562410941578
N           -1.34803552330080        1.02515713582260        0.10584616401123
C           -2.15104357990595        2.29570798231678        0.02991847526779
C           -1.88157163548339       -0.25792474253439        0.02417759903342
O           -3.06663985689890       -0.51821499798400       -0.01703151259282
N           -0.96749476902047       -1.36486202348414       -0.00237695432461
C           -1.41217022601558       -2.75119987454255       -0.01325612413946
H            3.62944349782868        1.28840174374668        0.98760233412171
H            3.92800165809163        1.06874648326474       -0.75309543142197
H            2.57200447871816        2.09117727780412       -0.19495967696827
H            3.57142858354719       -1.65005483120136        0.01502164258960
H           -1.87311382179281        3.37801187488505        0.60360477400887
H           -1.77950103933278        2.84086258520424       -0.80510929814346
H           -3.19225982587678        1.94575152216642       -0.05566553092110
H           -1.07208635083279       -3.27619998134883        0.88700445993046
H           -1.02097777929924       -3.28316949742793       -0.88843854856278
H           -2.49800256937733       -2.77926168844581       -0.04529451581564
H            1.38539827178473       -2.98358575185270        0.02244426700349
25
 energy: 25.371361717130 xtb: 6.6.1 (8d0f1dd)
C            3.15419702773798        1.19246824672774        0.00671036782972
N            2.25626932661699        0.08566775292023       -0.02087805993677
C            2.58501812260006       -1.25595707524861        0.01698834392005
N            1.41122012211019       -1.97779642379573        0.01673445828989
C            0.37227229949004       -1.11807546504666        0.00619346431988
C            0.86757385292806        0.17570069260445       -0.00659313235295
C            0.04303458834118        1.31783964042136       -0.00671185610468
O            0.40110273508096        2.49969985255462       -0.08663453003669
N           -1.34772712197997        1.02531519955597        0.10428314823746
C           -2.15014817877899        2.29537388172815        0.03078001262108
C           -1.88185115136199       -0.25738571110351        0.02381588421275
O           -3.06677685932057       -0.51846673730273       -0.01609406785240
N           -0.96743689245390       -1.36461982059985       -0.00298127999088
C           -1.41213016946393       -2.75111658177537       -0.01344234729944
H            3.62942893371175        1.28877056629853        0.98790195288082
H            3.92838981374592        1.06902408995885       -0.75273766653532
H            2.57176091601648        2.09094916925788       -0.19505657531786
H            3.57140356105090       -1.65071416782037        0.01540683105592
H           -1.87224030972340        3.37688892112355        0.60465436922319
H           -1.78405734950568        2.84219622904365       -0.80674506863169
H           -3.19165604057529        1.94548340469258       -0.05424179087627
H           -1.07236925416436       -3.27608322922789        0.88707246157777
H           -1.02070188740599       -3.28340444136598       -0.88831375559925
H           -2.49799838267967       -2.77901145698363       -0.04572275022007
H            1.38563696591945       -2.98371793444549        0.02264548273301
25
 energy: 25.243662411281 xtb: 6.6.1 (8d0f1dd)
C            3.15443714598333        1.19263853647521        0.00675741277050
N            2.25687008444866        0.08563991498410       -0.02114019392600
C            2.58515717797300       -1.25608518771775        0.01732975023600
N            1.41116200836564       -1.97780732812452        0.01696008899172
C            0.37244016120477       -1.11784762102777        0.00617268218017
C            0.86772253457540        0.17610133315251       -0.00653037135514
C            0.04366348191281        1.31798865108767       -0.00647560256099
O            0.40088212680819        2.50022834182883       -0.08593892436329
N           -1.34749200496069        1.02516962737104        0.10449891703005
C           -2.14965196955087        2.29477099680501        0.03169257892141
C           -1.88199001655420       -0.25684195548470        0.02381932878132
O           -3.06684854501181       -0.51840463732243       -0.01562040406327
N           -0.96725742559032       -1.36450881155330       -0.00351786703720
C           -1.41221975675228       -2.75094693440689       -0.01350834534813
H            3.62965489079780        1.28896647134367        0.98800309813415
H            3.92877563245951        1.06934454013764       -0.75262704978299
H            2.57179136362784        2.09090774423774       -0.19506046835197
H            3.57129207378681       -1.65151118862740        0.01524120033338
H           -1.87214119275181        3.37607728154665        0.60439927962236
H           -1.78660704036752        2.84165811637863       -0.80770507681243
H           -3.19091619014750        1.94493443726513       -0.05524784018751
H           -1.07257665956539       -3.27594256712617        0.88708472965275
H           -1.02112731378726       -3.28361935203124       -0.88827473843000
H           -2.49824274812686       -2.77820753791007       -0.04555179523977
H            1.38543684915901       -2.98367426910982        0.02227350695215
