25
 energy: -42.117662142229 gnorm: 0.003310360866 xtb: 6.6.1 (8d0f1dd)
C            3.42361924131495        0.91877017660069        0.07125182890085
N            2.49194939775312       -0.17515486091478        0.00037579581095
C            2.77788395291977       -1.45761374178655       -0.16404441515939
N            1.64078294004978       -2.18586549158860       -0.14921770450128
C            0.58871365173757       -1.32855917935132        0.03475963684806
C            1.13655768562341       -0.05401393572111        0.13060647671006
C            0.25540760303606        1.12577595049408        0.26905533017571
O            0.68476539414699        2.26186332797283        0.28569899810564
N           -1.03368712944686        0.77432677290966        0.34735531032411
C           -3.59871974527750        3.65658050421261       -0.34551519475924
C           -1.60442709168841       -0.42003006607287        0.29323493504696
O           -2.78391639273381       -0.63831882113277        0.37079991226424
N           -0.71661547301048       -1.58061479614974        0.10738651015115
C           -1.28641645622525       -2.90365327938785        0.03461384797611
H            3.96783130244234        0.88929096796286        1.01659855586914
H            4.13817609078138        0.86364518440736       -0.74909476988708
H            2.86412922039192        1.85384027747315        0.01758021996092
H            3.76263197609038       -1.86197062596695       -0.29364023688214
H           -2.73215113985095        4.28840945447382       -0.32516607961064
H           -3.98478531647485        3.29913337437273       -1.28036563707617
H           -4.07759905824779        3.37122737827140        0.57031909757319
H           -0.91399017273132       -3.53173947452260        0.84649207170662
H           -1.06812246028666       -3.36924366457844       -0.92882494384856
H           -2.36651924376076       -2.79042764885964        0.13863140262538
H            1.59493273754641       -3.18741924151825       -0.26771933042493
