25
 energy: -42.443556389529 xtb: 6.6.1 (8d0f1dd)
C            3.30939798947123        1.12344576275890        0.11980686799936
N            2.36707580765918        0.04382154557398        0.04126704314623
C            2.64949262808857       -1.27609541491839        0.07599150188920
N            1.49622042589447       -1.97971892673153        0.00732976667254
C            0.45730279886928       -1.11146406435171       -0.06402568636181
C            0.98041827368833        0.18586224867232       -0.04763674662858
C            0.17829965359109        1.34097815653556       -0.11679690270706
O            0.56635171107088        2.51256035704730       -0.11545757692765
N           -1.21861117098649        1.02617079065890       -0.18534751401620
C           -2.08594628002650        2.04860395142998       -0.30236983561219
C           -1.75876513249979       -0.27056459226627       -0.18904222124329
O           -2.95312724874844       -0.47493194808512       -0.24618989797737
N           -0.87095630878137       -1.35082183257180       -0.12589804978971
C           -1.39780011489667       -2.69833458742556       -0.10947860313608
H            3.83049862153053        1.11091155815237        1.08032758567001
H            4.04781788654435        1.04041769403539       -0.67961367508859
H            2.75432303300234        2.05689513027264        0.01899910000106
H            3.62843654972656       -1.70065716110233        0.13315260910704
H           -1.66535747743615        3.03158742493961       -0.35169937399751
H           -3.13675146204296        1.86609848793479       -0.21644175547360
H           -4.06732805002312        3.53915898560028        1.41873421104619
H           -1.08349391970760       -3.21914035271851        0.79700445222080
H           -1.06661055859084       -3.25276086884814       -0.99041279490287
H           -2.48479027991479       -2.62087279321471       -0.12035256416002
H            1.42930296245008       -2.98499428931535        0.00950080178135
