25
 energy: 0.000000000000 xtb: 6.6.1 (8d0f1dd)
C            3.23720163006194        1.16630919979326        0.08434469647475
N            2.29877817382611        0.07527477071623        0.03981603040599
C            2.58028210190900       -1.21425402444508        0.03006176031096
N            1.43813958087363       -1.93419271955128        0.00098261760884
C            0.39035688448383       -1.05887472636071       -0.00790371836672
C            0.93510056364412        0.21347819449412        0.01709077491437
C            0.09450143893243        1.40504303904423       -0.00410947031874
O            0.49712751527797        2.54126714362870       -0.00342325688240
N           -1.25076640035757        1.06271879480407       -0.03085478223738
C           -2.21907211982101        2.15522099834493       -0.05001256985998
C           -1.81739487048744       -0.20012725993278       -0.04692818574614
O           -2.99983886758376       -0.37846417018721       -0.07008878229737
N           -0.92618586207120       -1.30210215599479       -0.03682761578324
C           -1.46982264913417       -2.64643102187190       -0.06029820460571
H            3.71247264356769        1.21471455160235        1.06488849150277
H            4.00791497605742        1.03430808813993       -0.67357694370751
H            2.69910007168542        2.09770118228144       -0.09130154882931
H            3.56654120610678       -1.63682992603973        0.04233140067262
H           -1.67107961066214        3.09322851271934       -0.02552706933167
H           -2.82428953597071        2.09428624779827       -0.95318082946668
H           -2.87644029173232        2.07745725625962        0.81450067533302
H           -1.17061996399332       -3.19584890659852        0.83242232437030
H           -1.14560257411436       -3.17511610292205       -0.95688275822323
H           -2.55549792440841       -2.55659984320617       -0.07459039797972
H            1.38130855184625       -2.94313852034425       -0.01389874181052
25
 energy: -2.434511817152 xtb: 6.6.1 (8d0f1dd)
C            3.25497043962202        1.16641791860707        0.09261257189662
N            2.31409815875080        0.08903239628862        0.03795280935471
C            2.60703941239929       -1.23809868246330        0.03616278703404
N            1.43702192706030       -1.94696931820862        0.00100264195557
C            0.40440017071570       -1.06292721965375       -0.01815888156652
C            0.93448290543699        0.21690573956546        0.00522039493969
C            0.09863040633359        1.39031048602431       -0.02185708028201
O            0.50153835328814        2.55363415816122       -0.02275630598499
N           -1.27261239468785        1.05317882004692       -0.02165798955457
C           -2.24778945700863        2.15895006859563       -0.01760690726708
C           -1.82076238445404       -0.20673994850630       -0.06085094242217
O           -3.01501746403040       -0.39779412723764       -0.09533444871721
N           -0.92586650505915       -1.30672128743213       -0.05374862319408
C           -1.45705498108448       -2.65256472500330       -0.07132031172504
H            3.74037477713813        1.19909255585426        1.07175290588205
H            4.01894173936284        1.03726364627223       -0.67565038422831
H            2.71201536182068        2.09510408558627       -0.06942590507272
H            3.58579845399329       -1.66276244554572        0.06034989787764
H           -1.66271660669589        3.07860616022849       -0.09776301820326
H           -2.89360968053447        2.05355759665288       -0.88176448377787
H           -2.95609866623519        2.27817274687936        0.86468903398428
H           -1.15022295330243       -3.19817290423300        0.82342838496477
H           -1.12691733323834       -3.18792381052342       -0.96388463767658
H           -2.54271302140410       -2.56921160263779       -0.08462970484150
H            1.37428400974941       -2.95131170514571       -0.00972790722817
25
 energy: 7.107691450519 xtb: 6.6.1 (8d0f1dd)
C            3.27693724928559        1.15694859755761        0.10383409115493
N            2.32527340665441        0.09771808581504        0.03369062565273
C            2.62757197988611       -1.25970467463664        0.04706160398772
N            1.43450642768861       -1.95485245690327        0.00252772132305
C            0.41803975362306       -1.06747922516623       -0.03279463619703
C            0.92955053130827        0.22088766531562       -0.01098269177902
C            0.09928505196380        1.37208309538909       -0.03426717952643
O            0.49736940529661        2.55006795265011       -0.05319538830738
N           -1.30855277036217        1.05178799059920        0.00704269203065
C           -2.28312721638765        2.17704481776738        0.01809084586518
C           -1.82230698704607       -0.21193519980850       -0.07761911034090
O           -3.01824393858669       -0.42698831823342       -0.14156774081168
N           -0.92420671988092       -1.30861416629133       -0.08111101682511
C           -1.43674237894206       -2.65978955409264       -0.08871900032336
H            3.78108797269689        1.16741848860219        1.07727235714698
H            4.03267819792500        1.04081838409510       -0.67814699788390
H            2.73611602577761        2.09021835573046       -0.03313170480975
H            3.59999628951994       -1.68503537225379        0.08914447224612
H           -1.65640294456677        3.06916909068280       -0.21579303324491
H           -3.01026719155475        1.97854003780200       -0.77297502823144
H           -3.01562496702410        2.54270973483949        0.93717143054821
H           -1.12028867948201       -3.19873449056802        0.80943646678591
H           -1.09999806085485       -3.20514392477982       -0.97493347971388
H           -2.52295507169543       -2.59051515043516       -0.10063449592683
H            1.37251930269375       -2.95759116150526       -0.00236690667259
25
 energy: 16.407363675708 xtb: 6.6.1 (8d0f1dd)
C            3.29673163339050        1.14075394123801        0.11067267482341
N            2.33125177829639        0.09492586447335        0.03009369180125
C            2.63270824100395       -1.27179821197700        0.05725275338080
N            1.43401518727974       -1.95842488730038        0.00768917075304
C            0.42492794176803       -1.06956011104961       -0.04368531512273
C            0.92889147767422        0.22325838176592       -0.02315187957223
C            0.10040333041264        1.37043462431273       -0.04117789287982
O            0.49564159778173        2.54834176089852       -0.08280423032945
N           -1.33127165146144        1.06554472800881        0.03091765708298
C           -2.31221358828422        2.20127397991586        0.03863755321603
C           -1.82221943376893       -0.20805361199861       -0.09718103827409
O           -3.01450994836360       -0.44354143461801       -0.18811921048531
N           -0.92037023731562       -1.30378658919451       -0.10573460449546
C           -1.41893700787615       -2.66151093646705       -0.10153633726964
H            3.81876203635890        1.12672386402888        1.07639193640194
H            4.04287063429248        1.03674790590533       -0.68411061114945
H            2.76582787402568        2.08420915075619        0.00041350544844
H            3.60372434988857       -1.69947550760133        0.11809930426634
H           -1.69442883897430        3.06956806459717       -0.30484101736093
H           -3.11314761577916        1.91731635991868       -0.66816279483885
H           -3.03592459523405        2.70356624101158        0.98176055911041
H           -1.09371765737940       -3.19025489810342        0.80091579924615
H           -1.07596230588025       -3.21526296998153       -0.98103636172594
H           -2.50601886026352       -2.60943611816725       -0.11316597905291
H            1.37518032634395       -2.96253098820031        0.00889656317330
25
 energy: 19.856071515118 xtb: 6.6.1 (8d0f1dd)
C            3.30887739320193        1.12775157415740        0.11151759903845
N            2.33386692538688        0.08902823409512        0.02830680193218
C            2.62992763472347       -1.27435775238191        0.06225825934500
N            1.43476356228816       -1.95834149548988        0.01263852245353
C            0.42642832394962       -1.06930852130403       -0.04708549312991
C            0.93110776729604        0.22410724815440       -0.02771641778606
C            0.10279069570970        1.37564386002741       -0.04085734225464
O            0.49502968412031        2.54776047743995       -0.09970969901430
N           -1.33841714778037        1.07741872964184        0.04513920033936
C           -2.32892366158524        2.21343587284407        0.04445924277992
C           -1.82163605313357       -0.20154695357595       -0.11109130487296
O           -3.00865446762754       -0.44653003998933       -0.22153979351523
N           -0.91744824951371       -1.29705340237169       -0.11888325691402
C           -1.40956465302155       -2.65889871367436       -0.10609705529838
H            3.84302167356481        1.09540072718249        1.06989511946563
H            4.04571500272702        1.03144859629427       -0.69327461151706
H            2.78680285752967        2.07859300558589        0.02046998044259
H            3.60120706743425       -1.70376048098514        0.13565658708867
H           -1.74237376302373        3.06072871947532       -0.34128695873667
H           -3.15139606249263        1.89133561678344       -0.60134992211065
H           -3.04989678328806        2.76441420905125        0.98929987898052
H           -1.07834036316901       -3.17900770864085        0.79937550953359
H           -1.06264835660513       -3.21627305666285       -0.98166218349186
H           -2.49688265455273       -2.61903111874817       -0.11755119848460
H            1.37885829579753       -2.96392902473664        0.01612243187418
25
 energy: 19.737838833034 xtb: 6.6.1 (8d0f1dd)
C            3.31144190266555        1.12284271979170        0.11420302637468
N            2.33406489645671        0.08501237019520        0.03098247160988
C            2.62485548150226       -1.27067822464258        0.06347585620534
N            1.43555738115138       -1.95635705630013        0.01371340251316
C            0.42447997570913       -1.06826868681564       -0.04443031657469
C            0.93339887298572        0.22408433784189       -0.02581921565559
C            0.10665184069939        1.38126449228462       -0.03835514914487
O            0.49578105061041        2.54851119717005       -0.10596123602944
N           -1.33477633039545        1.08232599186947        0.05399865016635
C           -2.33102457165738        2.21631437977454        0.04282466054209
C           -1.82164569035997       -0.19581280634713       -0.11130923027472
O           -3.00457449681130       -0.44076993046948       -0.23497344952150
N           -0.91705835336060       -1.29185559146237       -0.12120331153378
C           -1.40936966320148       -2.65469393754669       -0.10971688831271
H            3.84910115418081        1.08115419412980        1.06811441101815
H            4.04287393322534        1.03115957795344       -0.69521212452627
H            2.79300904239936        2.07543172436347        0.03197880017132
H            3.59671830702626       -1.70035703933729        0.14171031373917
H           -1.76536334215658        3.04841656456604       -0.39163843513748
H           -3.16860724757920        1.85622142265599       -0.55324526091283
H           -3.03101127419798        2.77923540559977        0.99732764294077
H           -1.07667689134134       -3.17357719581427        0.79508691751155
H           -1.06107838062390       -3.20921604458352       -0.98595994549906
H           -2.49620063802789       -2.61881035885530       -0.12157563678735
H            1.38166770903687       -2.96254890384957        0.01301794326511
25
 energy: 18.103116203445 xtb: 6.6.1 (8d0f1dd)
C            3.31018610671808        1.12346601551250        0.11497323119755
N            2.33413914662675        0.08370101428216        0.03338616248890
C            2.62216118873771       -1.26729787247696        0.06285214705870
N            1.43560812819456       -1.95498124075463        0.01402787359585
C            0.42249913812244       -1.06709158483435       -0.04097871661760
C            0.93478338816488        0.22423201637962       -0.02254782244177
C            0.10961853560002        1.38388345320053       -0.03467892607720
O            0.49716685905974        2.54994441489423       -0.10614911976985
N           -1.32861156480855        1.08280207982034        0.05669214481829
C           -2.32668069025208        2.21568145421618        0.03865733471052
C           -1.82156978270869       -0.19269608056138       -0.11155854565235
O           -3.00309549191974       -0.43522465299892       -0.23806010307094
N           -0.91772023540214       -1.28961334938263       -0.11956886405620
C           -1.41227826236305       -2.65229894136378       -0.11016488677782
H            3.84800078254214        1.08064288452282        1.06739288632313
H            4.03996588221214        1.03263518465440       -0.69535286565071
H            2.79091741091044        2.07480777477344        0.03358658924927
H            3.59413229474643       -1.69769126619533        0.14148791437407
H           -1.77714718209572        3.03744431682903       -0.41078720086222
H           -3.16504175618958        1.84202192555936       -0.53046128625980
H           -3.01239645222303        2.76866557295933        0.99152559411785
H           -1.08070477565721       -3.17280148601454        0.79371121319521
H           -1.06432825654841       -3.20503243976477       -0.98759457628774
H           -2.49877926735364       -2.61504189861684       -0.12275751412907
H            1.38138952382263       -2.96112869246775        0.00940123267123
25
 energy: 17.075410922292 xtb: 6.6.1 (8d0f1dd)
C            3.30873500056567        1.12541282399131        0.11671434975708
N            2.33444368078142        0.08414215381248        0.03510440778298
C            2.62218095615486       -1.26661140512904        0.06193102257505
N            1.43523813455318       -1.95477672130211        0.01320656041131
C            0.42197678607135       -1.06633829976061       -0.03951370039281
C            0.93513330758485        0.22469393404591       -0.02061308758925
C            0.11101026703278        1.38427468555601       -0.03302245165884
O            0.49833435579180        2.55141588423367       -0.10378376515529
N           -1.32506248404780        1.08238619781167        0.05855517486098
C           -2.32327354551357        2.21560826788448        0.03760144981380
C           -1.82114368067910       -0.19129515297436       -0.10977783702659
O           -3.00322241009663       -0.43244183064915       -0.23605240427385
N           -0.91823108807106       -1.28912654384737       -0.11817933066754
C           -1.41454173790787       -2.65122537813328       -0.11164522458327
H            3.84534400649456        1.08381958524926        1.06982154651709
H            4.03925031254844        1.03413404764449       -0.69276509155807
H            2.78758187386562        2.07552202754229        0.03371939256204
H            3.59375773444767       -1.69781985561390        0.14013403509884
H           -1.77875412314144        3.03411581902600       -0.43313862715248
H           -3.17021074957282        1.82563732014679       -0.51609137276582
H           -2.99358461478374        2.76677441754852        0.99205789950855
H           -1.08427967348012       -3.17417115520233        0.79130061268067
H           -1.06722343832402       -3.20281422175816       -0.99017749230407
H           -2.50103407001545       -2.61166883256524       -0.12467634871143
H            1.37978986767755       -2.96061916538528        0.00632417841826
25
 energy: 16.468808835524 xtb: 6.6.1 (8d0f1dd)
C            3.30795834992243        1.12681266601431        0.11667750622345
N            2.33447849126440        0.08492987492083        0.03510905846961
C            2.62303211863722       -1.26712980581179        0.06080432483376
N            1.43483253210830       -1.95495074460859        0.01264826815160
C            0.42213877837109       -1.06596252337623       -0.03964370991956
C            0.93476296166158        0.22506182760876       -0.02023638631351
C            0.11008213604747        1.38347337427128       -0.03234879218286
O            0.49775018971449        2.55175931836492       -0.10065223268163
N           -1.32466349345498        1.08166086058843        0.05866608109979
C           -2.32281032524343        2.21542967677113        0.03784182148951
C           -1.82095055493681       -0.19153558767692       -0.10938197962194
O           -3.00394215871517       -0.43260395288849       -0.23329048555752
N           -0.91838335304430       -1.28970983577020       -0.11745321001127
C           -1.41508279453027       -2.65146337808561       -0.11162405530323
H            3.84368217060310        1.08738105347163        1.07090620475996
H            4.03981091176987        1.03442998152018       -0.69163399210085
H            2.78564005302892        2.07640086886714        0.03158448173964
H            3.59417513283164       -1.69898426459154        0.13901460083873
H           -1.77843748677304        3.03157691300592       -0.43382370333592
H           -3.16680826825431        1.82693477308957       -0.51558908210029
H           -2.98803989287754        2.76520564295026        0.98727050614797
H           -1.08526859901831       -3.17525108809167        0.79120257469585
H           -1.06821719933960       -3.20324815618151       -0.99034251948748
H           -2.50173192199690       -2.61060906144393       -0.12458236525234
H            1.37820689016025       -2.96057983074584        0.00591098156582
25
 energy: 15.932446001598 xtb: 6.6.1 (8d0f1dd)
C            3.30774054274972        1.12743870950403        0.11675039321549
N            2.33447355994090        0.08562227369757        0.03467921647845
C            2.62418577874227       -1.26823865785647        0.05915973359221
N            1.43443030702683       -1.95523730966789        0.01183389116439
C            0.42269369290997       -1.06561067945844       -0.04063055082841
C            0.93440207855385        0.22536105537730       -0.02041541863791
C            0.10853875544054        1.38263920180090       -0.03215067935542
O            0.49713805171228        2.55177036154003       -0.09701961896166
N           -1.32495898426241        1.08159447669424        0.05878023547452
C           -2.32409667029440        2.21600645513622        0.03896781517984
C           -1.82041111501567       -0.19166529682693       -0.10875216580067
O           -3.00437657780858       -0.43294236360328       -0.22990786931990
N           -0.91825981301106       -1.29024657603587       -0.11719520223633
C           -1.41489611425272       -2.65167762803272       -0.11183452453061
H            3.84222219941276        1.09009721292174        1.07241745891052
H            4.04132509367087        1.03389411742849       -0.69009038471201
H            2.78499998225864        2.07697304161828        0.02961519041440
H            3.59474719256502       -1.70060638479288        0.13872316462727
H           -1.77948338129771        3.02961428128489       -0.43417750653373
H           -3.16773029007849        1.82776347253706       -0.51518690334712
H           -2.98186102945784        2.76713455684481        0.98153403937144
H           -1.08528981735979       -3.17593223640212        0.79099161916349
H           -1.06823287159963       -3.20373947452842       -0.99051866348593
H           -2.50170410227857       -2.61027153831959       -0.12465054439974
H            1.37661819966935       -2.96071246868889        0.00611117070472
25
 energy: 15.789445124484 xtb: 6.6.1 (8d0f1dd)
C            3.30787455185257        1.12704201372626        0.11674117625229
N            2.33414915604573        0.08573076292814        0.03426380029020
C            2.62427160428610       -1.26838814765514        0.05811351462115
N            1.43436594020428       -1.95520164976123        0.01142970718443
C            0.42279935476547       -1.06559531789158       -0.04110496672278
C            0.93419974291998        0.22531290089405       -0.02049488168300
C            0.10752288667015        1.38257300661139       -0.03172180373412
O            0.49669052257128        2.55147006665498       -0.09616509846783
N           -1.32558650911578        1.08180905490151        0.05964453398937
C           -2.32566781208619        2.21640128148409        0.04045646836012
C           -1.82039822200304       -0.19184097999178       -0.10796927455988
O           -3.00442926780626       -0.43331485512096       -0.22903300521482
N           -0.91820671250343       -1.29032573016208       -0.11724502657749
C           -1.41443465895680       -2.65177704053425       -0.11200944474460
H            3.84216916936011        1.08954141841767        1.07263895814148
H            4.04173640532809        1.03338842390965       -0.68989135605727
H            2.78576049829395        2.07698903539413        0.02970337069258
H            3.59473598834242       -1.70050965505428        0.13935739077901
H           -1.78004243067310        3.02907561552976       -0.43548636067434
H           -3.16833666259430        1.82838250501742       -0.51539015311416
H           -2.98015088748456        2.76945855405245        0.97951228319297
H           -1.08468265513311       -3.17586770272635        0.79085252666697
H           -1.06750563690161       -3.20370084223781       -0.99062614415746
H           -2.50123819235696       -2.61090260849322       -0.12481304794046
H            1.37661849491116       -2.96072150772077        0.00627072962501
25
 energy: 15.673266407353 xtb: 6.6.1 (8d0f1dd)
C            3.30811178421645        1.12643898652627        0.11673416663986
N            2.33381307566192        0.08568256030647        0.03399481907983
C            2.62399356147953       -1.26814121048825        0.05730622671571
N            1.43438702107432       -1.95507477330655        0.01137599850292
C            0.42268914750423       -1.06565230487266       -0.04113592528253
C            0.93414167934387        0.22519384353521       -0.02054396998392
C            0.10708642264147        1.38284092646794       -0.03158262380959
O            0.49668908833080        2.55119631769684       -0.09697468389496
N           -1.32591258892471        1.08210821037651        0.06025747207137
C           -2.32678298615843        2.21679094323914        0.04161340322194
C           -1.82054524540976       -0.19184889803865       -0.10767172348678
O           -3.00431689022893       -0.43330283942760       -0.22955510629190
N           -0.91826416533458       -1.29009698637842       -0.11737403557291
C           -1.41412131543564       -2.65170471829857       -0.11202778298118
H            3.84270107261372        1.08796253093782        1.07231460002475
H            4.04157730575466        1.03306793251549       -0.69026294493264
H            2.78677598161994        2.07680068100165        0.03055246234008
H            3.59452033001991       -1.69978421855604        0.14065606506722
H           -1.78086187719752        3.02883253638173       -0.43524180262590
H           -3.16977784420544        1.82849944174673       -0.51562553770026
H           -2.97894524781414        2.77040351100476        0.97845630175740
H           -1.08424636990524       -3.17548420484643        0.79091299978053
H           -1.06676911695819       -3.20346639300550       -0.99053351310745
H           -2.50086202574645       -2.61155231282657       -0.12501075108894
H            1.37713387099432       -2.96068095951928        0.00639978170467
25
 energy: 15.621682149943 xtb: 6.6.1 (8d0f1dd)
C            3.30814040345925        1.12624114342541        0.11668400224975
N            2.33357674031519        0.08567941667838        0.03397040654536
C            2.62363909963069       -1.26770867009303        0.05669564543089
N            1.43441112049663       -1.95496566873356        0.01156478576982
C            0.42243345783926       -1.06576094772701       -0.04066333863313
C            0.93405746789433        0.22510505561200       -0.02038997349237
C            0.10706833722942        1.38301734314800       -0.03139936200852
O            0.49661910090760        2.55102890911539       -0.09818173323859
N           -1.32606281682543        1.08198209923047        0.06103478680774
C           -2.32696004074835        2.21679450467192        0.04235470561253
C           -1.82088197369991       -0.19196635529512       -0.10765271459520
O           -3.00432968988733       -0.43331273465724       -0.23063726195076
N           -0.91843179706493       -1.28990582110980       -0.11737166531331
C           -1.41412761710036       -2.65168627470191       -0.11196368532097
H            3.84331947334878        1.08676586886447        1.07168682443874
H            4.04092459468447        1.03334415231802       -0.69093172955577
H            2.78711244399680        2.07673712744949        0.03145126473662
H            3.59426328521215       -1.69895320860728        0.14181097880742
H           -1.78061280116232        3.02877609043495       -0.43526515807344
H           -3.16937174566077        1.82882414968903       -0.51612619576135
H           -2.97876178282221        2.77008995512637        0.97873092519481
H           -1.08416538294873       -3.17531279776379        0.79098691801454
H           -1.06655614647602       -3.20330041250834       -0.99046404053389
H           -2.50081865446265       -2.61185707556512       -0.12509165108798
H            1.37772959178054       -2.96062724682962        0.00620116210433
