72
 energy: -99.406945445028 gnorm: 0.009353905189 xtb: 6.6.1 (8d0f1dd)
N           -0.44443488711640        1.93859847273698        1.57993470424227
C           -1.68534734834056        2.13084422444805        1.58508293822832
C           -2.56581114881758        1.87691807194615        0.39028837396397
C           -3.21376608231338        0.50598634542087        0.51139505198113
C           -4.06339061968022        0.06319505976960       -0.50583296215578
C           -4.68602373658640       -1.17097318104392       -0.44241872990498
O           -5.51332386627737       -1.67668372852509       -1.38110461681314
C           -5.86043109529150       -0.88555186268420       -2.49311372139264
C           -4.46147532384021       -2.01059768639268        0.68208205019719
O           -5.10712934248662       -3.19418907974986        0.65670671609428
C           -4.99665779120160       -4.05932877491424        1.76260607156916
C           -3.61884214945192       -1.56593981966804        1.68731057907170
C           -3.00171079538171       -0.32434039397099        1.60029440439042
C           -1.77690837911252        1.99583960812674       -0.94635496444578
C           -1.07819421926526        0.73085392495405       -1.46670789544663
C            0.32762754929207        0.54555512728757       -0.86994157727278
N            0.73759816135090       -0.83351138157943       -0.80977361998530
C            1.78518479099403       -1.34967517416150       -1.41393090440140
C            2.77595968245917       -0.63676018282735       -2.25640195009025
C            3.96209532764670       -0.18995429183677       -1.41267707908779
C            4.29959259613471        1.14732143727323       -1.31435012211585
C            5.42185532846938        1.54237008298643       -0.59782334981006
C            6.21134750368328        0.60762623240364        0.05346552872535
O            7.32838791705729        0.87169016081731        0.75751569953760
C            7.83542368375100        2.18749419488229        0.77767257304724
C            5.84633948823018       -0.76619849944688       -0.01032798373282
O            6.65377357011293       -1.60258267573249        0.67193713880913
C            6.38178789363831       -2.98345358985007        0.67067945219723
C            4.73615911219910       -1.14098216476264       -0.74915565035515
C           -0.08485960993417       -1.69281774815269        0.01308800620292
C           -3.71342364268102        2.94125830084500        0.39533479210807
C           -4.64912707970285        2.80863278743777        1.60030171967884
C           -3.17483525904772        4.36784233221287        0.31147721982066
H           -4.23693668638707        0.69623536202040       -1.35972720551745
H           -6.34162827094761        0.04831312400071       -2.18717019399401
H           -6.56700528803810       -1.48304341475483       -3.06591528901521
H           -4.98861083923265       -0.66174056905072       -3.11660876290073
H           -5.37098977099653       -3.58955563920059        2.67692997475704
H           -5.61463739767747       -4.92187952321317        1.52055940060933
H           -3.96292964408214       -4.38596263799217        1.91610055767016
H           -3.43832610193794       -2.17740546940211        2.55623393488172
H           -2.35937446652811       -0.01124837144715        2.40910549830623
H           -2.48222192603798        2.31764139909113       -1.71386649300340
H           -1.03318024495728        2.78400727841952       -0.83254623443719
H           -1.69333394673184       -0.13776859732692       -1.24333720685523
H           -0.99859202130859        0.80234170701261       -2.55266432552993
H           -2.21897759815037        2.49003509209615        2.46732772905404
H            1.05487539883731        1.11746237541345       -1.43897207865991
H            1.97364176991225       -2.39428880722796       -1.21436786823103
H            0.29015388074519        0.95511144127536        0.15403828793599
H            2.34839858281089        0.22840792912023       -2.76126724411795
H            3.14246859409116       -1.32683987561695       -3.01949337831997
H            3.71084385310789        1.89931918725465       -1.81705557441385
H            5.67523857398170        2.58926830240235       -0.56057019650371
H            7.15066396951521        2.87542179732722        1.28371491587173
H            8.03969882077711        2.55084143831205       -0.23441360264770
H            8.76820809687705        2.13232150526233        1.33644828814868
H            7.15616912517649       -3.43303870819834        1.28959336190815
H            5.40066609066265       -3.20008878293776        1.10632095210491
H            6.43666637456379       -3.40447660934452       -0.33812440255690
H            4.47774935795649       -2.18419818834317       -0.83557514932455
H           -0.84374243517836       -2.19771971026366       -0.58866872217819
H           -0.58854825857472       -1.09864310531574        0.77224649798811
H            0.52024152758281       -2.45487630267874        0.50014210712319
H           -4.31871459776042        2.75343217284443       -0.49777234384154
H           -4.17980127412820        3.15055926382939        2.52007495847967
H           -4.97640075756930        1.78082634100668        1.73669027470752
H           -5.53027647578720        3.42589646489163        1.43866223228052
H           -2.46018556724382        4.56591800296320        1.10823967416280
H           -2.68787956911838        4.55691878284820       -0.64210647585522
H           -3.99819520330314        5.07117741938240        0.41270355345233
H            0.04387969362579        2.15697131976968        2.44909749825761
