  25
        -42.12443005
 C          3.1243158072       -0.4686561091        1.4197072364
 N          2.3702991618       -0.6426968179        0.1902545974
 C          3.0649467145       -1.2093383075       -0.9632103247
 N          4.1849836817       -1.7145724751       -0.9549492932
 C         -0.1029398127       -0.0307350180        0.0719369706
 C          1.1340045831       -0.4049970041        0.1216499953
 C         -0.5679472733        1.4244782264       -0.2563447643
 O          0.1384665075        2.3555477208       -0.4797147249
 N         -1.9132765092        1.3323290339       -0.1790466659
 C         -2.8331776200        2.4325650505       -0.3900622010
 C         -2.3725250910        0.0466201015        0.1347231941
 O         -3.5014557229       -0.3010929628        0.2710962795
 N         -1.2392936371       -0.7488590309        0.2711777284
 C         -1.2775321032       -2.1530633530        0.5954068368
 H          3.3834965783       -1.4433809065        1.8395897313
 H          4.0377158113        0.0878616499        1.2035860484
 H          2.5309364078        0.0845158369        2.1451047560
 H          2.4793271722       -1.1717795751       -1.8720794978
 H         -2.3613622645        3.3625471775       -0.0804213644
 H         -3.1137568139        2.4983710789       -1.4416646058
 H         -3.7253457187        2.2408252077        0.2050434000
 H         -0.7854738679       -2.3397172606        1.5509736407
 H         -0.7898369000       -2.7364257676       -0.1868286125
 H         -2.3241782567       -2.4434381628        0.6655714409
 H          4.7495520189       -1.7740749725       -0.1153425315
