25
 energy: 0.000000000000 xtb: 6.6.1 (8d0f1dd)
C            3.23720163006194        1.16630919979326        0.08434469647475
N            2.29877817382611        0.07527477071623        0.03981603040599
C            2.58028210190900       -1.21425402444508        0.03006176031096
N            1.43813958087363       -1.93419271955128        0.00098261760884
C            0.39035688448383       -1.05887472636071       -0.00790371836672
C            0.93510056364412        0.21347819449412        0.01709077491437
C            0.09450143893243        1.40504303904423       -0.00410947031874
O            0.49712751527797        2.54126714362870       -0.00342325688240
N           -1.25076640035757        1.06271879480407       -0.03085478223738
C           -2.21907211982101        2.15522099834493       -0.05001256985998
C           -1.81739487048744       -0.20012725993278       -0.04692818574614
O           -2.99983886758376       -0.37846417018721       -0.07008878229737
N           -0.92618586207120       -1.30210215599479       -0.03682761578324
C           -1.46982264913417       -2.64643102187190       -0.06029820460571
H            3.71247264356769        1.21471455160235        1.06488849150277
H            4.00791497605742        1.03430808813993       -0.67357694370751
H            2.69910007168542        2.09770118228144       -0.09130154882931
H            3.56654120610678       -1.63682992603973        0.04233140067262
H           -1.67107961066214        3.09322851271934       -0.02552706933167
H           -2.82428953597071        2.09428624779827       -0.95318082946668
H           -2.87644029173232        2.07745725625962        0.81450067533302
H           -1.17061996399332       -3.19584890659852        0.83242232437030
H           -1.14560257411436       -3.17511610292205       -0.95688275822323
H           -2.55549792440841       -2.55659984320617       -0.07459039797972
H            1.38130855184625       -2.94313852034425       -0.01389874181052
25
 energy: -2.428024406173 xtb: 6.6.1 (8d0f1dd)
C            3.27983128946842        1.17717830925435        0.12702658163772
N            2.31216551466490        0.10147793394113        0.06047638632824
C            2.59071110358874       -1.22992228205035        0.01659950815409
N            1.41763277702388       -1.93719966456362       -0.01389491325161
C            0.38717403118198       -1.05399046389355       -0.01530764234598
C            0.92636616949842        0.22575595925752        0.01455058481668
C            0.08693813208302        1.39353267265213       -0.01558587658354
O            0.47819309775953        2.56031834940454       -0.01755021058635
N           -1.27578244345945        1.04647616971839       -0.03784932463739
C           -2.24044733884444        2.14042835519823       -0.05495940006944
C           -1.83703763179748       -0.20566315312499       -0.04917795457206
O           -3.03333375286972       -0.39052089781219       -0.06709280233523
N           -0.94477759234565       -1.30328462011424       -0.04028013183381
C           -1.48508649496337       -2.64644082017742       -0.05627544071800
H            3.91469429259706        1.30675909103617        1.06594659440273
H            4.03655363322083        1.01605692128191       -0.63065051575386
H            2.72787303796755        2.09750830035817       -0.07809373418943
H            3.56522791059819       -1.66095799759310        0.01030610214505
H           -1.68455437645602        3.07500841901350       -0.02811541699664
H           -2.84619017566767        2.08735030702583       -0.95927990638749
H           -2.89968164249318        2.06698165183123        0.80955985259761
H           -1.18408877436982       -3.19475485271043        0.83854888350568
H           -1.15919513552649       -3.18345744569470       -0.94917130321579
H           -2.57108622598744       -2.55795136224129       -0.07061603027618
H            1.35011526306444       -2.94166027782520       -0.03207999368770
25
 energy: 7.224685713643 xtb: 6.6.1 (8d0f1dd)
C            3.34092488059427        1.18243093098857        0.17504711950888
N            2.33113065111912        0.13014670744514        0.10035415926132
C            2.59277305244602       -1.23664178428691        0.00092232381621
N            1.39499734502658       -1.92694729670506       -0.03646252587045
C            0.38297683925486       -1.04129031075059       -0.02516265111644
C            0.92012116014523        0.24553243659301        0.02178317631335
C            0.07540730442071        1.38009023709447       -0.02739877325156
O            0.43687834166434        2.56552437737011       -0.04127370718640
N           -1.30796275739344        1.03044111856009       -0.04777515184971
C           -2.27149787064130        2.12321855651839       -0.06357615587713
C           -1.85551559355170       -0.21289179155987       -0.05108114960390
O           -3.05574905498558       -0.40900464310772       -0.06083198936149
N           -0.96241632228430       -1.30046663488709       -0.04597408665002
C           -1.50149445537096       -2.64423695324727       -0.04912850846513
H            4.14583726898523        1.40244318966145        1.06546064990016
H            4.08450688955089        0.97723925393013       -0.58395926865795
H            2.78522510728882        2.09783267784713       -0.04907601705442
H            3.55420457099040       -1.68220603424452       -0.04187102002285
H           -1.71130614279848        3.05563162049658       -0.03250612958002
H           -2.87819713253325        2.07621479797750       -0.96857011115924
H           -2.93436713416849        2.04931408865679        0.79915666986105
H           -1.20422118158423       -3.19028292025105        0.85007949248902
H           -1.17976489139819       -3.19592055392746       -0.93611062599277
H           -2.58863028493663       -2.55705582870608       -0.06336644271728
H            1.31835407809629       -2.93008663929370       -0.06164538058592
25
 energy: 14.716769746895 xtb: 6.6.1 (8d0f1dd)
C            3.39173708645916        1.17956110992592        0.20075408387615
N            2.34537120014006        0.14464806725508        0.12527846117661
C            2.58872239399066       -1.23253656999845       -0.00756053644847
N            1.38671072402912       -1.91420101720818       -0.05668140751236
C            0.38022114624963       -1.02938668049709       -0.03079091709900
C            0.92048585929081        0.26101864294287        0.03176720660014
C            0.06408858795691        1.38266557154085       -0.03333191163831
O            0.40093881936832        2.57232721984894       -0.06137248262314
N           -1.32871007271510        1.02605778515758       -0.05526967956058
C           -2.29874492907073        2.11162908098532       -0.07050632704982
C           -1.86742851546143       -0.21875456698451       -0.05052906432799
O           -3.06666718814155       -0.42446089117275       -0.05283652603158
N           -0.96833991861398       -1.29707379304121       -0.04935648855275
C           -1.50959811114515       -2.64165248073910       -0.04077852944334
H            4.25780502101298        1.44236373288334        1.08024900908794
H            4.13360961994794        0.93098007635482       -0.54753993935884
H            2.85560923338873        2.10241934711822       -0.03626598690725
H            3.54389864054963       -1.68978436722399       -0.09074493263140
H           -1.74368077547907        3.04619577478784       -0.03590859763052
H           -2.90536942604068        2.06349174366565       -0.97585040893348
H           -2.96408963355745        2.03036941795614        0.79022362291560
H           -1.21767450905523       -3.18261954297743        0.86340741015370
H           -1.19497702483840       -3.20460839019771       -0.92318625204472
H           -2.59762394907130       -2.55167247385363       -0.05440559381731
H            1.30592038874238       -2.91794819435649       -0.09173031605197
25
 energy: 17.099345912605 xtb: 6.6.1 (8d0f1dd)
C            3.41155370893438        1.17553070001172        0.20658999803466
N            2.34992225349280        0.14766194021507        0.13254019186009
C            2.58474796876456       -1.22679021414939       -0.00653687861541
N            1.38676617534366       -1.90718262545856       -0.06625629900894
C            0.37824456581401       -1.02383600943328       -0.03201297279775
C            0.92055495918744        0.26695904505392        0.03901174541467
C            0.05966965406293        1.38800719453549       -0.03390544209811
O            0.38520915314933        2.57551054382172       -0.06974723180169
N           -1.33532251411148        1.02615577302710       -0.05811974877238
C           -2.30982874021955        2.10744306716462       -0.07268171365660
C           -1.87201846281142       -0.22142256914430       -0.04946803298313
O           -3.06973080761400       -0.42962218227787       -0.04789356914390
N           -0.96887391296696       -1.29590325019792       -0.05104160417570
C           -1.51119185840925       -2.64102923017088       -0.03721276803139
H            4.28574168184829        1.45528367279241        1.09511318740566
H            4.15838607606920        0.89983837819986       -0.52435994011732
H            2.88939855914319        2.10195409541634       -0.04550010002559
H            3.53737152643008       -1.68661063387232       -0.11899068073500
H           -1.76058654412323        3.04489361371413       -0.03587978849357
H           -2.91566781425646        2.05775522616330       -0.97862043210212
H           -2.97658207725764        2.02035895680881        0.78663953475829
H           -1.22174247205772       -3.17855747053021        0.86938555058119
H           -1.19969973883767       -3.20765046154282       -0.91762750527612
H           -2.59953566968156       -2.54834821292904       -0.05103072069266
H            1.30542899804333       -2.91137074504585       -0.10536088337989
25
 energy: 17.735399150550 xtb: 6.6.1 (8d0f1dd)
C            3.41544268610041        1.17319555512617        0.20517494031622
N            2.35036607527215        0.14724840370913        0.13382295406809
C            2.58210701768895       -1.22233801976338       -0.00105555643550
N            1.38832679802016       -1.90360988937193       -0.07022146652846
C            0.37666945597830       -1.02168498235579       -0.03175182518093
C            0.91966689364222        0.26857131609161        0.04446245364364
C            0.05939209697414        1.39161570143081       -0.03287839369425
O            0.37965613065159        2.57697135917214       -0.07317832049780
N           -1.33591064588764        1.02619400913747       -0.05876440046469
C           -2.31208847305909        2.10609902318709       -0.07280870685773
C           -1.87333423346766       -0.22263204957114       -0.04870179668429
O           -3.07005481984501       -0.43007570905590       -0.04523207560476
N           -0.96846055364912       -1.29600422892042       -0.05230772045507
C           -1.51089783024900       -2.64153105405036       -0.03659629818068
H            4.28781886573791        1.46099105681325        1.10598704328288
H            4.16726284859113        0.88129176822577       -0.51074563929216
H            2.90001906139012        2.09911107979259       -0.05838934658699
H            3.53317793315537       -1.68054767014562       -0.13674509628371
H           -1.76581704043131        3.04505940703114       -0.03478905410661
H           -2.91714932393125        2.05637056499931       -0.97938894844481
H           -2.97961535823071        2.01656084681392        0.78569828763263
H           -1.22209582577286       -3.17736997968890        0.87078927894559
H           -1.19988401574527       -3.20864553368654       -0.91623743095509
H           -2.59932430859902       -2.54782250051618       -0.05082957968261
H            1.30694123360178       -2.90798987223217       -0.10827940580561
25
 energy: 17.952048461639 xtb: 6.6.1 (8d0f1dd)
C            3.41248045291686        1.17263366355692        0.20198412030435
N            2.34951297792078        0.14647617301614        0.13326096706827
C            2.58110326851462       -1.22048505944430        0.00593372112025
N            1.38922669338442       -1.90249633369581       -0.07173667340682
C            0.37576800486341       -1.02138328936681       -0.03155165466718
C            0.91849636021920        0.26846141927544        0.04750398403952
C            0.06074744989970        1.39303552144943       -0.03240334050701
O            0.37906980680914        2.57779933426120       -0.07458355216818
N           -1.33476907551395        1.02573372716031       -0.05866825197773
C           -2.31088962501375        2.10590803277216       -0.07231240290078
C           -1.87329317246220       -0.22303868324638       -0.04847135098299
O           -3.06972918177320       -0.42926822216120       -0.04409226686506
N           -0.96818885475393       -1.29656820116050       -0.05338952398460
C           -1.51034394023499       -2.64228839534331       -0.03715108360400
H            4.28499829636687        1.46408396598604        1.11259720973472
H            4.16824302631899        0.87326768103229       -0.50405443500733
H            2.89955990975688        2.09703660806885       -0.06674224150846
H            3.53089185281379       -1.67584838734775       -0.14827263713025
H           -1.76501981447535        3.04509955059965       -0.03400088318558
H           -2.91561554802335        2.05689388927832       -0.97920809815162
H           -2.97857631927122        2.01632480348581        0.78598703536657
H           -1.22125020358918       -3.17764339207420        0.87028033253613
H           -1.19880526217880       -3.20905128089158       -0.91666868073168
H           -2.59873454583666       -2.54869123379515       -0.05152958654148
H            1.30733211127819       -2.90696328924350       -0.10567681070176
25
 energy: 18.277659765669 xtb: 6.6.1 (8d0f1dd)
C            3.40779238970113        1.17265040251222        0.19864181872271
N            2.34851374634965        0.14603910693240        0.13210803581039
C            2.58110996098794       -1.22061257954639        0.01480509827882
N            1.38943008322159       -1.90259464568711       -0.07270045758513
C            0.37536701769760       -1.02181695865586       -0.03184817615924
C            0.91743288325989        0.26785740966691        0.04872567611060
C            0.06220534056879        1.39323448468685       -0.03274447610311
O            0.38011487131934        2.57809218062152       -0.07507979401827
N           -1.33379856523730        1.02521325725057       -0.05853743846322
C           -2.30931730515906        2.10612531485955       -0.07178381670792
C           -1.87295182243496       -0.22305466608106       -0.04864206041229
O           -3.06943374388938       -0.42862318743539       -0.04377478744605
N           -0.96809004734186       -1.29714672300408       -0.05449356761968
C           -1.50995240972385       -2.64289413754767       -0.03797672210328
H            4.28448654959843        1.46694395542039        1.11760421410488
H            4.16729355663830        0.87045204775241       -0.50059702436064
H            2.89609126308046        2.09614788614698       -0.07122370459603
H            3.52935850927736       -1.67260498226866       -0.15850994715733
H           -1.76276835021470        3.04501993473644       -0.03362492845782
H           -2.91406863729592        2.05783482649721       -0.97869015361099
H           -2.97677693634035        2.01724918516287        0.78666975378272
H           -1.22027726171447       -3.17824956275095        0.86930830811600
H           -1.19785858113592       -3.20933671311752       -0.91759482665509
H           -2.59827083085543       -2.54975090594893       -0.05221698317651
H            1.30658298757902       -2.90714632803065       -0.10079014414622
25
 energy: 18.873748605312 xtb: 6.6.1 (8d0f1dd)
C            3.40281389941880        1.17248752655198        0.19541107727261
N            2.34758221349040        0.14589823105683        0.13003650048595
C            2.58184303397355       -1.22247753355309        0.02675161776174
N            1.38912293794763       -1.90348347443306       -0.07352637311209
C            0.37538723945830       -1.02267474079705       -0.03285395959240
C            0.91671187067944        0.26695109196441        0.04801153469507
C            0.06311423846034        1.39267130200814       -0.03370061874745
O            0.38165821997456        2.57771872217279       -0.07486848635329
N           -1.33342532327408        1.02492732547032       -0.05855284678297
C           -2.30825078557312        2.10658298178617       -0.07141994985042
C           -1.87258869357473       -0.22281223566226       -0.04916397078724
O           -3.06921978700258       -0.42846777760356       -0.04409517167338
N           -0.96802567829362       -1.29756745444113       -0.05567213709649
C           -1.50978593035454       -2.64320440510687       -0.03880233795102
H            4.28827114029556        1.47000590720503        1.12244143872895
H            4.16617780258010        0.87114643835802       -0.49928418114652
H            2.89197064490042        2.09627197857132       -0.07227838666092
H            3.52791414792376       -1.67021469224398       -0.16984464004776
H           -1.76067103912429        3.04499859617658       -0.03360265034458
H           -2.91328026874591        2.05872338464319       -0.97809825141852
H           -2.97523221313550        2.01849825916506        0.78740817393445
H           -1.21948609936522       -3.17873144960370        0.86831467835200
H           -1.19744392035433       -3.20954946824200       -0.91857451353303
H           -2.59803819214074       -2.55053763915337       -0.05266331253770
H            1.30509520977211       -2.90813227211773       -0.09433933744768
25
 energy: 19.620649967509 xtb: 6.6.1 (8d0f1dd)
C            3.39983235791968        1.17176790588652        0.19363214766315
N            2.34704320225766        0.14599075165197        0.12722359551983
C            2.58281977083328       -1.22523097486852        0.03832225600685
N            1.38851216019996       -1.90465123394870       -0.07386034534493
C            0.37571581916801       -1.02348610762986       -0.03436502088941
C            0.91676832079368        0.26606181179998        0.04539909994639
C            0.06277150669106        1.39179645664642       -0.03468738892414
O            0.38253411215256        2.57674600316046       -0.07422125016739
N           -1.33374790811942        1.02509690205710       -0.05877178268642
C           -2.30828256949022        2.10700294975627       -0.07145576262090
C           -1.87243742582897       -0.22252401738903       -0.04977749335586
O           -3.06914212906575       -0.42884460099383       -0.04476321506935
N           -0.96793044224661       -1.29758862532813       -0.05647914315493
C           -1.50991232933612       -2.64308154930186       -0.03919785068184
H            4.29598959331899        1.47235150870988        1.12631222749055
H            4.16583803894617        0.87419805544576       -0.50003194090785
H            2.88953442316466        2.09714113681343       -0.06966282609446
H            3.52646277531939       -1.66883122567415       -0.17977004584037
H           -1.76016640285708        3.04514919786167       -0.03388986490147
H           -2.91362698435604        2.05901216933103       -0.97784207296195
H           -2.97486245135168        2.01920623870427        0.78769768848707
H           -1.21931804928812       -3.17867872762092        0.86788445969181
H           -1.19779845955118       -3.20962414516008       -0.91900808331806
H           -2.59815648577130       -2.55059904287858       -0.05266242487180
H            1.30377422443366       -2.90935223485905       -0.08899106686719
25
 energy: 20.187115950715 xtb: 6.6.1 (8d0f1dd)
C            3.39949459059771        1.17088017132032        0.19374075102939
N            2.34689727757821        0.14610925549461        0.12474001793267
C            2.58334234205041       -1.22719400939784        0.04489599394758
N            1.38796141632135       -1.90541957720590       -0.07339238654352
C            0.37596737722674       -1.02380564026349       -0.03556820118622
C            0.91739028602208        0.26553908687726        0.04262844270132
C            0.06159620053638        1.39120875520785       -0.03511945572433
O            0.38234951652281        2.57578489963715       -0.07374781953793
N           -1.33414629748032        1.02548841386367       -0.05904781381464
C           -2.30890690993272        2.10712595382603       -0.07178565394754
C           -1.87252037242685       -0.22245152987469       -0.05008549718693
O           -3.06917897939778       -0.42920344466682       -0.04518155154454
N           -0.96785605938381       -1.29730759965532       -0.05659527955004
C           -1.51016775978034       -2.64278135954012       -0.03908068424461
H            4.30316986265636        1.47346477230480        1.12838491747137
H            4.16620593463940        0.87687443437675       -0.50130189193619
H            2.88941495116056        2.09792684875497       -0.06600129432228
H            3.52523781005976       -1.66822673062668       -0.18545876030193
H           -1.76107155879967        3.04538409018742       -0.03423203451041
H           -2.91436099188023        2.05867940733145       -0.97804958756148
H           -2.97543356415385        2.01906094072043        0.78741885170204
H           -1.21970820295628       -3.17822981260328        0.86811896923824
H           -1.19839371647954       -3.20958202911062       -0.91876810881835
H           -2.59845527799351       -2.55018601782744       -0.05243179466579
H            1.30338679322941       -2.91011067695845       -0.08704623247859
25
 energy: 20.403901639947 xtb: 6.6.1 (8d0f1dd)
C            3.40014364568800        1.17042815090494        0.19450587623562
N            2.34686582088235        0.14613859920390        0.12339510971147
C            2.58332247829473       -1.22776008462548        0.04662758903741
N            1.38766650299210       -1.90563919061030       -0.07244061569886
C            0.37596063425486       -1.02370958927863       -0.03601567967849
C            0.91792392334888        0.26539625503955        0.04125199488767
C            0.06065844315463        1.39107281696923       -0.03515205667853
O            0.38188478862112        2.57534127309153       -0.07369020112553
N           -1.33413438013601        1.02572617665441       -0.05922088272813
C           -2.30927205642611        2.10702817004598       -0.07205319330255
C           -1.87264557909972       -0.22257591034526       -0.05005220890376
O           -3.06924826020556       -0.42915965940457       -0.04516038137382
N           -0.96786397485746       -1.29705984097923       -0.05631051256682
C           -1.51032963624123       -2.64263057855393       -0.03883078288387
H            4.30622582677803        1.47376092698419        1.12902366837403
H            4.16663924981047        0.87771554981409       -0.50165953162926
H            2.89011701435560        2.09817273676342       -0.06414938192425
H            3.52459614523467       -1.66800809530633       -0.18751263022689
H           -1.76195532313053        3.04552849685808       -0.03440716061385
H           -2.91466633897178        2.05826631750572       -0.97835670938891
H           -2.97594024262013        2.01861606234609        0.78703827870251
H           -1.22011429304736       -3.17788962904577        0.86849218291939
H           -1.19862623650036       -3.20951093154340       -0.91838219521185
H           -2.59865049498041       -2.54990079954252       -0.05231430212793
H            1.30365701073750       -2.91031862077364       -0.08759237765748
25
 energy: 20.435571813542 xtb: 6.6.1 (8d0f1dd)
C            3.40075841417803        1.17037108686445        0.19522868217256
N            2.34678254316000        0.14613839438512        0.12237802170387
C            2.58308643284436       -1.22768004748700        0.04687820499352
N            1.38745382199875       -1.90566680945411       -0.07102526126829
C            0.37581017392180       -1.02344598826582       -0.03619545580861
C            0.91830571454763        0.26539411112335        0.04061319289749
C            0.05998174417935        1.39110508416047       -0.03517238383871
O            0.38160018400452        2.57520141057080       -0.07386215239438
N           -1.33376210412732        1.02580829107216       -0.05932050667754
C           -2.30928650820582        2.10686082861892       -0.07216968991205
C           -1.87272202479241       -0.22281792164439       -0.04984951580280
O           -3.06932289551193       -0.42877191036370       -0.04485974401174
N           -0.96794410804937       -1.29689891417076       -0.05589756711923
C           -1.51041103062707       -2.64262744697721       -0.03864041622872
H            4.30664352027153        1.47385793797201        1.12915928328040
H            4.16698021351000        0.87754529634124       -0.50124646570618
H            2.89071793333993        2.09813057300792       -0.06375130697353
H            3.52416794064826       -1.66783427084125       -0.18825853526395
H           -1.76243831894021        3.04559579324816       -0.03441884401013
H           -2.91457624538077        2.05795628365919       -0.97856239060409
H           -2.97610423190097        2.01815451481840        0.78678390750944
H           -1.22039205837917       -3.17774780196089        0.86875417172677
H           -1.19854495026416       -3.20942218790887       -0.91810409899731
H           -2.59874062766180       -2.54983814573443       -0.05234604329904
H            1.30417113517309       -2.91033955886172       -0.08908119022044
