25
 energy: 0.000000000000 xtb: 6.6.1 (8d0f1dd)
C            3.23720132972391        1.16630909158653        0.08434468864950
N            2.29877796055224        0.07527476373246        0.03981602671198
C            2.58028186251803       -1.21425391179017        0.03006175752192
N            1.43813944744728       -1.93419254010258        0.00098261751768
C            0.39035684826767       -1.05887462812143       -0.00790371763344
C            0.93510047688824        0.21347817468824        0.01709077332874
C            0.09450143016486        1.40504290868848       -0.00410946993748
O            0.49712746915594        2.54126690785742       -0.00342325656480
N           -1.25076628431515        1.06271869620815       -0.03085477937476
C           -2.21907191394203        2.15522079838987       -0.05001256521996
C           -1.81739470187490       -0.20012724136556       -0.04692818139228
O           -2.99983858926755       -0.37846413507442       -0.07008877579474
N           -0.92618577614240       -1.30210203518959       -0.03682761236648
C           -1.46982251276835       -2.64643077634382       -0.06029819901142
H            3.71247229913541        1.21471443890471        1.06488839270555
H            4.00791460421487        1.03430799217987       -0.67357688121503
H            2.69909982127087        2.09770098766290       -0.09130154035862
H            3.56654087521359       -1.63682977417947        0.04233139674524
H           -1.67107945562430        3.09322822573871       -0.02552706696334
H           -2.82428927394145        2.09428605349656       -0.95318074103337
H           -2.87644002486466        2.07745706351925        0.81450059976605
H           -1.17061985538665       -3.19584861009707        0.83242224714061
H           -1.14560246782873       -3.17511580834413       -0.95688266944647
H           -2.55549768731684       -2.55659960601237       -0.07459039105944
H            1.38130842369251       -2.94313824728853       -0.01389874052104
25
 energy: -6.394278445397 xtb: 6.6.1 (8d0f1dd)
C            3.25380116375448        1.17292721171182        0.09832324825005
N            2.30831360184586        0.10508738478124        0.04616062062910
C            2.60047930179990       -1.23971019825702        0.02934628500196
N            1.41809622557492       -1.93681913361108       -0.00508194196572
C            0.39788044229331       -1.05779450147389       -0.01167596920270
C            0.92047096054239        0.22904201947176        0.01605913472401
C            0.11162429899283        1.38744193672075       -0.00735536097105
O            0.48595806336954        2.56322058932797       -0.00877917039581
N           -1.27233322575922        1.04897692860776       -0.03283511880728
C           -2.22725192410255        2.14558640173240       -0.05169139990680
C           -1.81930202820016       -0.19764312660804       -0.04744478413758
O           -3.01790585377552       -0.38626381829549       -0.06899068579804
N           -0.94009021395528       -1.30015887533788       -0.03841582370978
C           -1.47497561493446       -2.64200393756450       -0.05898014659979
H            3.75607257298766        1.23473334984870        1.06986885845063
H            4.02306148093789        1.02892343911954       -0.66094282708583
H            2.71631323186844        2.10096160944665       -0.08269920341963
H            3.57453816522439       -1.65805005110136        0.02589302420403
H           -1.66981462629911        3.07947273482972       -0.02684417895395
H           -2.83289074634592        2.09156791877148       -0.95622573371078
H           -2.88666416963500        2.07401973677329        0.81302704664488
H           -1.17412310165454       -3.19409810125405        0.83458516835159
H           -1.14853280524998       -3.17727502728219       -0.95368969069744
H           -2.56057585283965       -2.55379393122169       -0.07361833921964
H            1.36354793406397       -2.94107359768366       -0.02043199995651
25
 energy: -6.249552176192 xtb: 6.6.1 (8d0f1dd)
C            3.26749317760232        1.17348303692708        0.11073998206999
N            2.31346953287178        0.10846647940501        0.05630884372789
C            2.60078871441408       -1.24112277624559        0.02593123208925
N            1.41499862641455       -1.93535962552133       -0.01198125549484
C            0.39664730975106       -1.05463891347710       -0.01681531714815
C            0.92150962483546        0.23262957777501        0.01517955047383
C            0.10854469370756        1.38774594450001       -0.01173447811593
O            0.47741663248094        2.56561401864130       -0.01401936431053
N           -1.27723859279387        1.04588876455301       -0.03506806342326
C           -2.23452382271119        2.14052141997191       -0.05302543665802
C           -1.82410033922645       -0.20006691835090       -0.04814353259061
O           -3.02306106486972       -0.38924115559540       -0.06684219337906
N           -0.94250673422187       -1.29997250835356       -0.04083775379937
C           -1.47903915039623       -2.64160550778687       -0.05760250386412
H            3.79462745327793        1.25130963640190        1.07077178687460
H            4.03575844710016        1.02070089644302       -0.64679886578170
H            2.73350106582197        2.10216445026669       -0.07384669539230
H            3.57235154795805       -1.66681988124014        0.01074279498669
H           -1.67679036176104        3.07376404000121       -0.02862278269988
H           -2.84083601744989        2.08687135199335       -0.95742222162922
H           -2.89482424556419        2.06928630686323        0.81149500735246
H           -1.18058029095928       -3.19249359889190        0.83770872541719
H           -1.15383920245022       -3.17995550612135       -0.95081063782560
H           -2.56483565760834       -2.55160456457962       -0.07281917671170
H            1.35418810145208       -2.93969491276463       -0.02636139483292
25
 energy: -5.870680633827 xtb: 6.6.1 (8d0f1dd)
C            3.28275330465273        1.17302667414958        0.12138977835107
N            2.31851624666392        0.11152998799094        0.06836755600662
C            2.59951762945450       -1.24198948341570        0.02192289835288
N            1.41088251697769       -1.93297284680313       -0.01620963488074
C            0.39463613619575       -1.05039366050160       -0.01663403911122
C            0.92265904564978        0.23680075912823        0.02005829837069
C            0.10446991811787        1.38839691936763       -0.01373988561352
O            0.46837583996572        2.56739349612077       -0.02104440908614
N           -1.28237102281487        1.04373805887454       -0.03754110596943
C           -2.24236881898364        2.13636393095031       -0.05544624439416
C           -1.82923950426029       -0.20193855685283       -0.04919120514663
O           -3.02822997346176       -0.39159267867051       -0.06729910278852
N           -0.94514147937989       -1.29927804808048       -0.04111332010784
C           -1.48187977105469       -2.64196095394386       -0.05651827927278
H            3.83246121092859        1.26609672865809        1.07128320378754
H            4.04847870409722        1.01079241110272       -0.63696971906891
H            2.75309590707556        2.10314206658172       -0.06447939344603
H            3.56803637186112       -1.67548811762587       -0.00984689990151
H           -1.68422394002099        3.06864238334215       -0.02852678417401
H           -2.84889730995781        2.08549965931597       -0.96023373915105
H           -2.90457714929964        2.06369797402160        0.80781644490584
H           -1.18407435986538       -3.19207401109760        0.83939610107376
H           -1.15822329566672       -3.18369321570727       -0.94809271866867
H           -2.56818697840165       -2.55395437095521       -0.07137980085232
H            1.34397920535526       -2.93713791066476       -0.03427433943981
25
 energy: -5.219281097571 xtb: 6.6.1 (8d0f1dd)
C            3.29769627559618        1.17262441082511        0.13265045651754
N            2.32294318557609        0.11513783794529        0.07943269008277
C            2.59818156674832       -1.24159149450356        0.01515477527343
N            1.40742473546663       -1.93009680012561       -0.02344464386109
C            0.39281602616276       -1.04656120169478       -0.01881899724917
C            0.92322795717657        0.24080450748961        0.02354611547879
C            0.10011959652051        1.38797737571260       -0.01623978449331
O            0.45813373709585        2.56834768841993       -0.02711526939413
N           -1.28792209052281        1.04076420009301       -0.03961515189135
C           -2.24977635204275        2.13186126013188       -0.05776778406753
C           -1.83427961884036       -0.20447122842448       -0.04946599167141
O           -3.03327769951892       -0.39512421643988       -0.06662517276610
N           -0.94769584997116       -1.29899629047907       -0.04208334169481
C           -1.48553184000531       -2.64182185999709       -0.05463279976989
H            3.87136438234905        1.28070176965108        1.07103009825274
H            4.06140373790695        0.99919238788959       -0.62536927091734
H            2.77169467080393        2.10397408128919       -0.05577502337714
H            3.56361563715533       -1.68115689900501       -0.02801122702291
H           -1.69158715286596        3.06355650336268       -0.03036674832095
H           -2.85650520312813        2.08192405653278       -0.96269501418545
H           -2.91293286815951        2.05891992956443        0.80498781758288
H           -1.18970626709775       -3.19091537956670        0.84263989638600
H           -1.16336337543936       -3.18635836128788       -0.94493968378654
H           -2.57209787840677       -2.55268849007544       -0.06967355395008
H            1.33556244866385       -2.93409888708560       -0.04354708527829
25
 energy: -4.336179463973 xtb: 6.6.1 (8d0f1dd)
C            3.31356391075424        1.17244285281907        0.14280018490050
N            2.32727452661781        0.11967423124696        0.09109206972566
C            2.59612704380659       -1.23916526585484        0.00872279463686
N            1.40392503808266       -1.92604995334240       -0.02974848051084
C            0.39084728713356       -1.04202517810064       -0.02034409573766
C            0.92383401631843        0.24543232030528        0.02801103316065
C            0.09551568693235        1.38778141423391       -0.01858376992682
O            0.44757205725394        2.56953272041357       -0.03314785392851
N           -1.29368271673579        1.03803274103212       -0.04185635963898
C           -2.25751781129580        2.12762092289542       -0.05991635809950
C           -1.83945962420744       -0.20681384192057       -0.05010286900454
O           -3.03841077946617       -0.39890966697667       -0.06561847487391
N           -0.95028094503544       -1.29836348101107       -0.04339968796027
C           -1.48891635605662       -2.64152165725420       -0.05322720579962
H            3.91007355810045        1.29622108730573        1.06990503527266
H            4.07480733337585        0.98602125752147       -0.61509343959484
H            2.79174026577165        2.10485190443513       -0.05077742819838
H            3.55869879776554       -1.68483802805118       -0.04659199630279
H           -1.70002208340498        3.05929038620529       -0.03139056187695
H           -2.86429173440831        2.07871095776552       -0.96503338607055
H           -2.92175931077582        2.05365006488705        0.80210373596117
H           -1.19467343249701       -3.18943771607373        0.84534253603241
H           -1.16802680077231       -3.18908651654711       -0.94210502617613
H           -2.57584156544300       -2.55205568255179       -0.06843672744842
H            1.32733558780262       -2.92981078365669       -0.05215236498240
25
 energy: -3.279131642671 xtb: 6.6.1 (8d0f1dd)
C            3.33025546519294        1.17231480954467        0.15300695291209
N            2.33150442758951        0.12510824918997        0.10319865031093
C            2.59372970474503       -1.23536110568378        0.01047557658559
N            1.40083009157608       -1.92120876612923       -0.03588692094630
C            0.38901504306830       -1.03699942200323       -0.02202414479002
C            0.92453135260719        0.25066662333185        0.03254863715008
C            0.09069935327296        1.38828663071742       -0.02096101297180
O            0.43690546288551        2.57132750252008       -0.03943538680741
N           -1.29957110588950        1.03566231422527       -0.04437001222168
C           -2.26550752822054        2.12371166443759       -0.06243802690531
C           -1.84460398834275       -0.20901030281188       -0.05067551672462
O           -3.04340787944793       -0.40324411468129       -0.06355817458414
N           -0.95268057307892       -1.29740089537007       -0.04492411260147
C           -1.49189891895769       -2.64105387865773       -0.05125406181623
H            3.94844092254720        1.31119369565510        1.06932041827413
H            4.08876122084289        0.97203960344971       -0.60483294517675
H            2.81359203545404        2.10646832814339       -0.04590860289163
H            3.55310013025720       -1.68675415534594       -0.06876486295381
H           -1.70922311483553        3.05591171453016       -0.03252225695619
H           -2.87205524784536        2.07544978604768       -0.96788280550774
H           -2.93097350137342        2.04816416414426        0.79866836145526
H           -1.19855713359570       -3.18732617734594        0.84868280528113
H           -1.17264359063755       -3.19212009855547       -0.93854302515302
H           -2.57922140709066       -2.55170044218162       -0.06614421267968
H            1.32059086250524       -2.92481753045108       -0.06174264239064
25
 energy: -2.071696931771 xtb: 6.6.1 (8d0f1dd)
C            3.34722561379080        1.17208461020056        0.16228037118227
N            2.33583727390226        0.13048777569469        0.11513016736425
C            2.59231626134707       -1.23203405313769        0.01964454361436
N            1.39867974899663       -1.91636464889428       -0.04190775160349
C            0.38773705210334       -1.03203859650437       -0.02396066534706
C            0.92530627207909        0.25601054699786        0.03722468958382
C            0.08588529065910        1.38951978041099       -0.02314350071229
O            0.42643898620114        2.57359906922972       -0.04536930981930
N           -1.30530616540268        1.03354330874932       -0.04675056832332
C           -2.27342935103880        2.11992862500678       -0.06467687872897
C           -1.84934641949133       -0.21124320156797       -0.05103023835453
O           -3.04790980716670       -0.40799849749896       -0.06154874567378
N           -0.95460769279350       -1.29639124850399       -0.04662141822409
C           -1.49472858116834       -2.64041022595319       -0.04920407866159
H            3.98738210428619        1.32593717024425        1.06741396028533
H            4.10255663928101        0.95733869234740       -0.59553095382312
H            2.83555558720574        2.10799177635162       -0.04245860738255
H            3.54811172458906       -1.68669541746462       -0.09014594459013
H           -1.71868100554729        3.05289078800545       -0.03386471433424
H           -2.87983501829109        2.07177619090351       -0.97031301865498
H           -2.93970801501998        2.04268919493725        0.79580141078094
H           -1.20269141243593       -3.18513849172102        0.85219619532463
H           -1.17719973305635       -3.19477460831614       -0.93499995937056
H           -2.58237773195588       -2.55065465888834       -0.06399708924496
H            1.31552901016023       -2.91986511835314       -0.07203551747818
25
 energy: -0.714254963301 xtb: 6.6.1 (8d0f1dd)
C            3.36455966839829        1.17133813673356        0.17105554197427
N            2.34032108747652        0.13539997797809        0.12662024953175
C            2.59166660626027       -1.22974378178388        0.03097034930857
N            1.39689494588056       -1.91142827164612       -0.04819483025822
C            0.38676553952386       -1.02700175184905       -0.02582179972206
C            0.92616767729847        0.26131635098114        0.04216086532876
C            0.08080605818757        1.39116169002611       -0.02519113013134
O            0.41596762297803        2.57609616467640       -0.05124670348630
N           -1.31097894113167        1.03183195010010       -0.04913090177225
C           -2.28146176956843        2.11638151327622       -0.06687928707429
C           -1.85377712040195       -0.21335311642894       -0.05114204793030
O           -3.05202911002511       -0.41276344793660       -0.05924913858807
N           -0.95619669510486       -1.29519801376686       -0.04837169499746
C           -1.49722532898667       -2.63957373162009       -0.04677543004204
H            4.02623631396408        1.34014141109272        1.06511885817354
H            4.11632238038750        0.94191462965679       -0.58633290302654
H            2.85758020182949        2.10862992015345       -0.04067202127088
H            3.54373575793966       -1.68428874606764       -0.11173762768868
H           -1.72862534090820        3.05038402595295       -0.03505361774690
H           -2.88759965898298        2.06787191465598       -0.97271440630574
H           -2.94845198013696        2.03702564691918        0.79296842784624
H           -1.20643674794828       -3.18248083511703        0.85617607964326
H           -1.18163968277715       -3.19731646910673       -0.93106865423188
H           -2.58514350094603       -2.54907226160367       -0.06128842182003
H            1.31139640462281       -2.91473977604528       -0.08321285156288
25
 energy: 0.789320355752 xtb: 6.6.1 (8d0f1dd)
C            3.38234691359425        1.17025515568491        0.17948336309441
N            2.34501121184068        0.14013211140575        0.13789822104078
C            2.59166537161618       -1.22761920103876        0.04198667872152
N            1.39601770632737       -1.90636282072609       -0.05454778587213
C            0.38616272170022       -1.02215646074883       -0.02721414267035
C            0.92712451425472        0.26641962001887        0.04793594604561
C            0.07601274543998        1.39300168596928       -0.02612825818861
O            0.40560809722718        2.57869829999987       -0.05681271256518
N           -1.31654049722686        1.03034655690751       -0.05141719446700
C           -2.28942032462994        2.11306817778401       -0.06894339107131
C           -1.85790013152876       -0.21541101811438       -0.05090678532419
O           -3.05573660538557       -0.41785794127206       -0.05636954438327
N           -0.95742487777152       -1.29388121730754       -0.05004431727628
C           -1.49947678654346       -2.63853679499227       -0.04388719012598
H            4.06494243957506        1.35363094539128        1.06350582360803
H            4.13017064832100        0.92548323211305       -0.57662277930412
H            2.88031076448217        2.10824537129640       -0.04271422060591
H            3.53995008120758       -1.67966883289164       -0.13261358143701
H           -1.73872227744883        3.04840593589727       -0.03572503459556
H           -2.89519579432256        2.06394425637700       -0.97503355465994
H           -2.95709850278593        2.03124418939833        0.79023876678421
H           -1.20984958074579       -3.17964398592780        0.86049058577670
H           -1.18601158489174       -3.19973731178901       -0.92673442721722
H           -2.58760803402527       -2.54674176376907       -0.05797440323324
H            1.30984639736575       -2.90952430663899       -0.09448910648941
25
 energy: 2.415839229252 xtb: 6.6.1 (8d0f1dd)
C            3.40002731302269        1.16921236815247        0.18813740631737
N            2.34972594702370        0.14464573519449        0.14907314163300
C            2.59231114801337       -1.22552594168920        0.05249864259927
N            1.39602079004690       -1.90103109890092       -0.06077480701334
C            0.38580821725646       -1.01753065703656       -0.02804970543598
C            0.92789531995036        0.27111163529099        0.05451664964853
C            0.07199351471073        1.39551750564673       -0.02624889233460
O            0.39562163784143        2.58173224580822       -0.06214804241320
N           -1.32179340552950        1.02924922796821       -0.05371092278867
C           -2.29726051362443        2.10996087141284       -0.07081890854979
C           -1.86161374860615       -0.21726884314914       -0.05046257287067
O           -3.05897245762957       -0.42293481596549       -0.05286194138431
N           -0.95822634354331       -1.29242701212689       -0.05196591957853
C           -1.50134322950673       -2.63743992070380       -0.04084906650454
H            4.10255375109728        1.36650343601507        1.06494042365383
H            4.14353806207363        0.90826627909185       -0.56590366145144
H            2.90160090122873        2.10668446117868       -0.04834069472736
H            3.53703903857221       -1.67269541586002       -0.15269055593433
H           -1.74896900884825        3.04688398237108       -0.03598564687871
H           -2.90268263734702        2.06012434367327       -0.97718634687539
H           -2.96555781671708        2.02530463171967        0.78770674158345
H           -1.21298788007615       -3.17670845433454        0.86494842270041
H           -1.19016353278222       -3.20220606422203       -0.92219227450026
H           -2.58964321404399       -2.54426370830408       -0.05464158813740
H            1.31008216982794       -2.90380828525446       -0.10519347191147
25
 energy: 4.079882362134 xtb: 6.6.1 (8d0f1dd)
C            3.41421261308389        1.16731373330352        0.19432062668205
N            2.35375732498537        0.14668517358082        0.15883079571511
C            2.59365250182475       -1.22529753580789        0.06292620309053
N            1.39658473205958       -1.89768758572510       -0.06555695282019
C            0.38561555983765       -1.01519579060442       -0.02857080610064
C            0.92838039354342        0.27335468675050        0.05795476636055
C            0.07000053216937        1.39714724098138       -0.02647624943540
O            0.38668313840252        2.58406029048437       -0.06728617238384
N           -1.32629354048935        1.02824391433337       -0.05606261562438
C           -2.30473472386418        2.10679172614679       -0.07239391656638
C           -1.86452432694386       -0.21914985438057       -0.04965832250397
O           -3.06139956887226       -0.42793340125386       -0.04804409851666
N           -0.95816479906455       -1.29195881458952       -0.05492737842749
C           -1.50254589724579       -2.63691232134146       -0.03759183148110
H            4.13411922043534        1.38154925464553        1.07019749346286
H            4.15525960005441        0.88976684382826       -0.55410617998329
H            2.91359558534987        2.10024725372415       -0.06275078915003
H            3.53436398368542       -1.66741624446117       -0.17341445015594
H           -1.75969916616096        3.04584214888765       -0.03559684439854
H           -2.90979389834507        2.05604314208160       -0.97911094366666
H           -2.97355097229484        2.01841551544004        0.78541765596281
H           -1.21531331164879       -3.17346445351652        0.86994220630044
H           -1.19361426170451       -3.20528084206972       -0.91717299760179
H           -2.59089210438376       -2.54144430265700       -0.05142138702662
H            1.30990785948523       -2.90121547319112       -0.09541620152194
25
 energy: 20.435518932281 xtb: 6.6.1 (8d0f1dd)
C            3.40075809866568        1.17037097828087        0.19522866405982
N            2.34678232543243        0.14613838082683        0.12237801035000
C            2.58308619319321       -1.22767993358646        0.04687820064430
N            1.38745369327487       -1.90566663265196       -0.07102525467878
C            0.37581013905524       -1.02344589331352       -0.03619545245050
C            0.91830562934993        0.26539408650087        0.04061318912952
C            0.05998173861442        1.39110495509784       -0.03517238057552
O            0.38160014860078        2.57520117165120       -0.07386214554167
N           -1.33376198038480        1.02580819590069       -0.05932050117396
C           -2.30928629395702        2.10686063315058       -0.07216968321636
C           -1.87272185104678       -0.22281790097200       -0.04984951117791
O           -3.06932261074919       -0.42877187058351       -0.04485973984979
N           -0.96794401824637       -1.29689879384830       -0.05589756193322
C           -1.51041089049558       -2.64262720180202       -0.03864041264378
H            4.30664312071383        1.47385780123181        1.12915917852033
H            4.16697982690985        0.87754521492517       -0.50124641920201
H            2.89071766514763        2.09813037834955       -0.06375130105887
H            3.52416761368634       -1.66783411610450       -0.18825851779788
H           -1.76243815542637        3.04559551068675       -0.03441884081685
H           -2.91457597497497        2.05795609272807       -0.97856229981595
H           -2.97610395578678        2.01815432757997        0.78678383451395
H           -1.22039194515479       -3.17774750713881        0.86875409112632
H           -1.19854483906669       -3.20942189014813       -0.91810401381832
H           -2.59874038655830       -2.54983790916796       -0.05234603844253
H            1.30417101417593       -2.91033928884899       -0.08908118195575
