25
 energy: -42.573868993586 xtb: 6.6.1 (8d0f1dd)
C            3.41421261308389        1.16731373330352        0.19432062668205
N            2.35375732498537        0.14668517358082        0.15883079571511
C            2.59365250182475       -1.22529753580789        0.06292620309053
N            1.39658473205958       -1.89768758572510       -0.06555695282019
C            0.38561555983765       -1.01519579060442       -0.02857080610064
C            0.92838039354342        0.27335468675050        0.05795476636055
C            0.07000053216937        1.39714724098138       -0.02647624943540
O            0.38668313840252        2.58406029048437       -0.06728617238384
N           -1.32629354048935        1.02824391433337       -0.05606261562438
C           -2.30473472386418        2.10679172614679       -0.07239391656638
C           -1.86452432694386       -0.21914985438057       -0.04965832250397
O           -3.06139956887226       -0.42793340125386       -0.04804409851666
N           -0.95816479906455       -1.29195881458952       -0.05492737842749
C           -1.50254589724579       -2.63691232134146       -0.03759183148110
H            4.13411922043534        1.38154925464553        1.07019749346286
H            4.15525960005441        0.88976684382826       -0.55410617998329
H            2.91359558534987        2.10024725372415       -0.06275078915003
H            3.53436398368542       -1.66741624446117       -0.17341445015594
H           -1.75969916616096        3.04584214888765       -0.03559684439854
H           -2.90979389834507        2.05604314208160       -0.97911094366666
H           -2.97355097229484        2.01841551544004        0.78541765596281
H           -1.21531331164879       -3.17346445351652        0.86994220630044
H           -1.19361426170451       -3.20528084206972       -0.91717299760179
H           -2.59089210438376       -2.54144430265700       -0.05142138702662
H            1.30990785948523       -2.90121547319112       -0.09541620152194
