25
 energy: 0.000000000000 xtb: 6.6.1 (8d0f1dd)
C            3.23720163006194        1.16630919979326        0.08434469647475
N            2.29877817382611        0.07527477071623        0.03981603040599
C            2.58028210190900       -1.21425402444508        0.03006176031096
N            1.43813958087363       -1.93419271955128        0.00098261760884
C            0.39035688448383       -1.05887472636071       -0.00790371836672
C            0.93510056364412        0.21347819449412        0.01709077491437
C            0.09450143893243        1.40504303904423       -0.00410947031874
O            0.49712751527797        2.54126714362870       -0.00342325688240
N           -1.25076640035757        1.06271879480407       -0.03085478223738
C           -2.21907211982101        2.15522099834493       -0.05001256985998
C           -1.81739487048744       -0.20012725993278       -0.04692818574614
O           -2.99983886758376       -0.37846417018721       -0.07008878229737
N           -0.92618586207120       -1.30210215599479       -0.03682761578324
C           -1.46982264913417       -2.64643102187190       -0.06029820460571
H            3.71247264356769        1.21471455160235        1.06488849150277
H            4.00791497605742        1.03430808813993       -0.67357694370751
H            2.69910007168542        2.09770118228144       -0.09130154882931
H            3.56654120610678       -1.63682992603973        0.04233140067262
H           -1.67107961066214        3.09322851271934       -0.02552706933167
H           -2.82428953597071        2.09428624779827       -0.95318082946668
H           -2.87644029173232        2.07745725625962        0.81450067533302
H           -1.17061996399332       -3.19584890659852        0.83242232437030
H           -1.14560257411436       -3.17511610292205       -0.95688275822323
H           -2.55549792440841       -2.55659984320617       -0.07459039797972
H            1.38130855184625       -2.94313852034425       -0.01389874181052
25
 energy: -3.162639098229 xtb: 6.6.1 (8d0f1dd)
C            3.27716399304701        1.17711656289804        0.12283155338793
N            2.31233337890508        0.10113657264498        0.05929847184361
C            2.59195971267317       -1.23015099427411        0.01850925485902
N            1.41868985601044       -1.93712818261455       -0.01243742581467
C            0.38833691182479       -1.05370608060774       -0.01432342338535
C            0.92719439902469        0.22592329460684        0.01544581467449
C            0.08841808619789        1.39405581755842       -0.01447471462602
O            0.47982760481849        2.56096227294648       -0.01639030235043
N           -1.27431994183174        1.04680423900771       -0.03730298432657
C           -2.23884170448520        2.14068085682699       -0.05462068496417
C           -1.83581715415852       -0.20519644996346       -0.04904192674503
O           -3.03219234457998       -0.38997630036683       -0.06744492038773
N           -0.94356182664133       -1.30278210911622       -0.03997565426725
C           -1.48373616294314       -2.64582629020039       -0.05657913344934
H            3.89338086189752        1.29679831700162        1.06575762337447
H            4.03424323215543        1.01864155702766       -0.63668694945135
H            2.72653972695572        2.09829845969865       -0.07823648143179
H            3.56675147094785       -1.66123786844483        0.01321435447395
H           -1.68232467524017        3.07485858509539       -0.02799339071660
H           -2.84459885531714        2.08756411975667       -0.95893719619772
H           -2.89793899529163        2.06755545065470        0.81003429560357
H           -1.18260907708368       -3.19441882220979        0.83802128227304
H           -1.15773347715354       -3.18245547579245       -0.94967137257495
H           -2.56968860326538       -2.55702189222532       -0.07089534776979
H            1.35073825146959       -2.94146703773641       -0.03106684588402
25
 energy: 3.903872324962 xtb: 6.6.1 (8d0f1dd)
C            3.33437541261408        1.18160171699909        0.16593528822614
N            2.33074965367626        0.12867576308442        0.09827838038115
C            2.59542025846511       -1.23718646501419        0.00612156379845
N            1.39738220379983       -1.92674673059878       -0.03281096005450
C            0.38549259547030       -1.04066916242526       -0.02244654002504
C            0.92187676761670        0.24567757075732        0.02419633058050
C            0.07858377004054        1.38145940336713       -0.02475878923043
O            0.44052946338270        2.56710240634702       -0.03826426608836
N           -1.30444418116269        1.03128678363616       -0.04655249346322
C           -2.26785077449423        2.12377827007565       -0.06299331497907
C           -1.85248911378266       -0.21180202274531       -0.05089952487028
O           -3.05280214374194       -0.40784779250959       -0.06194426423150
N           -0.95939406192107       -1.29931628985934       -0.04523059858871
C           -1.49818039576432       -2.64272715218220       -0.04984931440512
H            4.09966672085027        1.37874099182383        1.06382219384111
H            4.07745975884213        0.98425304824661       -0.59825610715566
H            2.78233670978707        2.09978474445317       -0.04920326386169
H            3.55751531109718       -1.68260509826071       -0.03498594886073
H           -1.70648180854424        3.05542568554807       -0.03245897009947
H           -2.87455097419627        2.07644431123604       -0.96796013109806
H           -2.93051507914785        2.05052626494557        0.79993243717151
H           -1.20068663416635       -3.18929264971630        0.84890582247920
H           -1.17622747881365       -3.19348242352874       -0.93729854220577
H           -2.58514362816121       -2.55456490216653       -0.06406390452188
H            1.31959231619052       -2.92948766934112       -0.06018118659130
25
 energy: 8.702305648694 xtb: 6.6.1 (8d0f1dd)
C            3.37851681356288        1.17787620011103        0.18728839903971
N            2.34349462250064        0.14125882774806        0.12328812388121
C            2.59251998663096       -1.23368401409879        0.00121592541556
N            1.39070411499233       -1.91476939478643       -0.05007284344944
C            0.38401065842838       -1.02933235739949       -0.02656763198629
C            0.92294055430548        0.26016209234539        0.03509116003111
C            0.06944525487194        1.38454313007005       -0.02919367189195
O            0.40868984478767        2.57398740928715       -0.05550158259556
N           -1.32219062562869        1.02787374214936       -0.05310219537042
C           -2.29175241479646        2.11347522820431       -0.06953372512430
C           -1.86193071282606       -0.21660922523168       -0.05048680062997
O           -3.06117658274097       -0.42169107282771       -0.05520845109819
N           -0.96339235255866       -1.29561507075012       -0.04831760588464
C           -1.50405825180958       -2.63962536738270       -0.04228161203997
H            4.18753472935208        1.40453198613398        1.07387855667468
H            4.11825314686086        0.94521082931267       -0.57124960211297
H            2.84517781658948        2.10429465065799       -0.03581993242514
H            3.54904196590375       -1.68959112268196       -0.07793652026967
H           -1.73531927256409        3.04720802821261       -0.03596065259431
H           -2.89820861411273        2.06447802205841       -0.97488926069957
H           -2.95682034685517        2.03335663087780        0.79142519176373
H           -1.21150492262912       -3.18143089989580        0.86108781232733
H           -1.18867895970407       -3.20059798576404       -0.92561265019516
H           -2.59176029760962       -2.54836211276057       -0.05594077936936
H            1.30867851298502       -2.91791955141745       -0.08856575524912
25
 energy: 9.869365651149 xtb: 6.6.1 (8d0f1dd)
C            3.39927613326535        1.17289303691054        0.19396495093725
N            2.34864631926685        0.14455945445790        0.13492890156304
C            2.58923816370583       -1.22813436378578        0.00382081123575
N            1.39109286348615       -1.90704697001650       -0.05996684908035
C            0.38295176607509       -1.02283822977965       -0.02794054445107
C            0.92392988927978        0.26717906878592        0.04332623165923
C            0.06557598301058        1.39050091757861       -0.02983945856732
O            0.39276212459507        2.57826263933031       -0.06410172252449
N           -1.32858643909837        1.02834281760464       -0.05612475699528
C           -2.30335597849916        2.10900077822197       -0.07225345291983
C           -1.86576049127902       -0.21887142486080       -0.04953278855020
O           -3.06345602922458       -0.42712862847720       -0.05011666905669
N           -0.96301394109087       -1.29370111322574       -0.05040288156195
C           -1.50482613778619       -2.63820821693337       -0.03804848330093
H            4.20693168895125        1.40902329655896        1.08576178405097
H            4.14192014763118        0.91553530201925       -0.55208406511956
H            2.88085902041817        2.10434386522245       -0.04215591735075
H            3.54317282202452       -1.68690184878507       -0.10700550454065
H           -1.75347109104840        3.04602352775495       -0.03662945510661
H           -2.90899361821906        2.05771969599931       -0.97820762334839
H           -2.97000331655162        2.02270407884234        0.78716436611799
H           -1.21476253926973       -3.17609410506202        0.86807030400091
H           -1.19311226816707       -3.20364197560135       -0.91914542513406
H           -2.59283833373302       -2.54400550773320       -0.05159841759909
H            1.30803793019349       -2.91048749285442       -0.10484943821062
25
 energy: 9.692748298538 xtb: 6.6.1 (8d0f1dd)
C            3.40520229288765        1.16953337644732        0.19454562078422
N            2.34965147142465        0.14449670547832        0.14162110509296
C            2.58712248402882       -1.22377622503494        0.01117505782932
N            1.39284006878733       -1.90271374693021       -0.06468637635535
C            0.38206307789630       -1.01968552963424       -0.02820976228078
C            0.92375179987777        0.26993968518118        0.04959253355687
C            0.06554377867249        1.39465347025603       -0.02882773200311
O            0.38665189857877        2.58076227576882       -0.06791899660523
N           -1.32929630843646        1.02868041539001       -0.05691940818476
C           -2.30653814596357        2.10725993082178       -0.07277993395565
C           -1.86669136550831       -0.21972720468313       -0.04875668433312
O           -3.06343290854083       -0.42782281180361       -0.04695265918588
N           -0.96201046199552       -1.29313021609555       -0.05238489162633
C           -1.50393327664234       -2.63801500930013       -0.03684685889859
H            4.20238851367637        1.40949935227520        1.09384484155865
H            4.15135636786187        0.89607043825702       -0.54009589075851
H            2.89460635834511        2.10142688733472       -0.05494129408426
H            3.53930634174320       -1.68077094282238       -0.12696510081548
H           -1.76069283095618        3.04641051600952       -0.03580772364606
H           -2.91124267149615        2.05527593290229       -0.97947668977756
H           -2.97420732321392        2.01775587734160        0.78560291980614
H           -1.21445316791382       -3.17354983572336        0.87047789104891
H           -1.19321200553135       -3.20484346235689       -0.91680287770454
H           -2.59202460718319       -2.54255035984552       -0.05053608966174
H            1.30946528753758       -2.90615091706179       -0.11091710365279
25
 energy: 9.325452010128 xtb: 6.6.1 (8d0f1dd)
C            3.40412829803261        1.16826137578613        0.19345268336922
N            2.34899831777404        0.14383796761864        0.14667648614825
C            2.58645849611469       -1.22199314524033        0.02070329670314
N            1.39383710373537       -1.90101069651442       -0.06651003373668
C            0.38156757572234       -1.01866630397548       -0.02841383065211
C            0.92294785428785        0.27061595447910        0.05360421462039
C            0.06702897438216        1.39638802543127       -0.02797515036681
O            0.38556205705173        2.58219820135761       -0.06945219262863
N           -1.32830636914117        1.02839663042325       -0.05681655369639
C           -2.30588171602981        2.10683803322211       -0.07241146880769
C           -1.86647039678092       -0.21989185481507       -0.04847521749272
O           -3.06297159359083       -0.42712242901789       -0.04534200047678
N           -0.96143023397072       -1.29327650658739       -0.05434825909881
C           -1.50294648005392       -2.63835734246602       -0.03735456353691
H            4.19465157636265        1.41089437263016        1.09710317767502
H            4.15272802161346        0.88585512259548       -0.53386600648664
H            2.89645758708797        2.09853736091410       -0.06531478747198
H            3.53707289349672       -1.67534696784710       -0.14113291139759
H           -1.76109521131830        3.04657112427193       -0.03479047800529
H           -2.90995067310645        2.05531233428127       -0.97963799808906
H           -2.97399395973743        2.01660276931808        0.78549926392681
H           -1.21312255048081       -3.17287421230360        0.87033662835489
H           -1.19193939134248       -3.20546055112903       -0.91683684496788
H           -2.59101208626325       -2.54290077524977       -0.05109107608489
H            1.30989657409077       -2.90437988501097       -0.11057248165357
25
 energy: 8.949546828740 xtb: 6.6.1 (8d0f1dd)
C            3.40081629497219        1.16775455654098        0.19199852810435
N            2.34775612885851        0.14311753388716        0.15303295544465
C            2.58664210109327       -1.22189423245387        0.03582975135694
N            1.39438793012014       -1.90027230944676       -0.06774407386972
C            0.38137623553927       -1.01838311132764       -0.02912491598768
C            0.92191910926102        0.27065020243966        0.05689213439125
C            0.06904030938490        1.39716175415235       -0.02761142923527
O            0.38605951139733        2.58318006937097       -0.07043402596454
N           -1.32713784534608        1.02788919520179       -0.05661131855373
C           -2.30421263630619        2.10690862964574       -0.07172188738046
C           -1.86590270057197       -0.21980030754527       -0.04857233066325
O           -3.06243641831719       -0.42640290343725       -0.04416017213962
N           -0.96093699309570       -1.29366069667330       -0.05708110221446
C           -1.50191558093691       -2.63883206021077       -0.03872035890925
H            4.18728869761654        1.41394869760016        1.09828959338647
H            4.15167502839540        0.87804008807604       -0.52910157542251
H            2.89477230707808        2.09572033501208       -0.07495751471843
H            3.53480599930804       -1.66939485014059       -0.15844353346212
H           -1.75910899943568        3.04650510908218       -0.03371134344048
H           -2.90786151786467        2.05633891584350       -0.97930358678333
H           -2.97244807864337        2.01680577669814        0.78599884619935
H           -1.21139260583722       -3.17269528635506        0.86916324392365
H           -1.19037827165372       -3.20615424146483       -0.91788217673680
H           -2.58992885045678       -2.54385871491496       -0.05228585714075
H            1.30933551337702       -2.90364354740842       -0.10670395403691
25
 energy: 8.562030880503 xtb: 6.6.1 (8d0f1dd)
C            3.39664398124304        1.16766874517534        0.19059746208793
N            2.34620643493854        0.14236550119604        0.16020266539456
C            2.58786218386935       -1.22396308879605        0.05844588684974
N            1.39458744647592       -1.90046847639918       -0.06857674271085
C            0.38173310185005       -1.01870265323279       -0.03088786708893
C            0.92119928166890        0.27006982668425        0.05840190967700
C            0.07094141258123        1.39708909959160       -0.02796047482315
O            0.38759684515762        2.58335453950233       -0.07086204470656
N           -1.32619451891676        1.02751464125805       -0.05656109424868
C           -2.30236332154535        2.10742631651783       -0.07087124815186
C           -1.86506244709639       -0.21946189027672       -0.04917900049333
O           -3.06174033710829       -0.42611127760428       -0.04345458141203
N           -0.96023908895494       -1.29401703324821       -0.06070723608677
C           -1.50087166803933       -2.63914376051577       -0.04073937121311
H            4.18159105607367        1.41762442465303        1.09759060172783
H            4.14922633492400        0.87297912539478       -0.52622445178432
H            2.89118457909562        2.09335577454118       -0.08230136731188
H            3.53177672168183       -1.66256807955361       -0.18050048702091
H           -1.75606638962989        3.04642205927674       -0.03273440165290
H           -2.90599131068693        2.05792938284100       -0.97847930674438
H           -2.97032363163342        2.01788532472728        0.78699667930623
H           -1.20946734616755       -3.17255742582058        0.86727408214744
H           -1.18905378065848       -3.20686676263075       -0.91966501622165
H           -2.58883928092180       -2.54482524905282       -0.05376350116091
H            1.30787840973564       -2.90397046205666       -0.09900719821122
25
 energy: 8.207698535947 xtb: 6.6.1 (8d0f1dd)
C            3.39336013533837        1.16780076947032        0.18998439165474
N            2.34482594202245        0.14169541686991        0.16500502706707
C            2.59012504461015       -1.22826983356146        0.08405925546081
N            1.39444333410869       -1.90174621221747       -0.06858240699044
C            0.38280213223343       -1.01953572734277       -0.03380827113680
C            0.92156839332024        0.26881933099516        0.05628770889799
C            0.07172546127774        1.39616075175232       -0.02900021699409
O            0.38962679891944        2.58232131549508       -0.07044396441696
N           -1.32565669361355        1.02764477415457       -0.05681355161862
C           -2.30109446883171        2.10823869893479       -0.07016151193136
C           -1.86406063591137       -0.21896504390924       -0.05026352309394
O           -3.06085606508176       -0.42642241402105       -0.04351602435454
N           -0.95917290375170       -1.29400675356378       -0.06428513573829
C           -1.50003770172860       -2.63896334215761       -0.04278103306602
H            4.17947528899430        1.41936704089474        1.09518792858651
H            4.14604712950105        0.87318270303094       -0.52705780985443
H            2.88703678289574        2.09241250748210       -0.08353034423729
H            3.52768235805174       -1.65593869185925       -0.20205804732499
H           -1.75351804379818        3.04657280270647       -0.03224105087264
H           -2.90525014247360        2.05931912765167       -0.97735015073026
H           -2.96838653312433        2.01926139550799        0.78820934276721
H           -1.20789417872004       -3.17213837898519        0.86530913360717
H           -1.18858114668829       -3.20726322702127       -0.92157721614100
H           -2.58799771612480       -2.54506928432533       -0.05491853884408
H            1.30600209651088       -2.90544912380961       -0.08862009454847
25
 energy: 8.079898030650 xtb: 6.6.1 (8d0f1dd)
C            3.39330934465753        1.16795854703600        0.19104456545538
N            2.34441308635745        0.14148986224199        0.16365764042657
C            2.59224053589798       -1.23251253017072        0.09761643813347
N            1.39398967127656       -1.90345750395492       -0.06723527397939
C            0.38402751896777       -1.02029324115133       -0.03613108497140
C            0.92321500027195        0.26756116785808        0.05119142755871
C            0.07058891845862        1.39490574458940       -0.02999339165168
O            0.39077073851041        2.58055067984102       -0.06933652146416
N           -1.32560810670454        1.02830236606562       -0.05730698073257
C           -2.30120488044730        2.10875322910780       -0.07022078047700
C           -1.86341541554214       -0.21866814996887       -0.05120309697990
O           -3.06020904753063       -0.42702961432337       -0.04442944565859
N           -0.95820726852939       -1.29346864975062       -0.06541993376128
C           -1.49988719367190       -2.63827733435643       -0.04345576561431
H            4.18245951014842        1.41703666837457        1.09275917139820
H            4.14393060990923        0.87922364667488       -0.53167368375423
H            2.88504957801922        2.09377735079484       -0.07648859343340
H            3.52423975900321       -1.65305357086038       -0.21156348946076
H           -1.75345540528982        3.04698019993303       -0.03275440120153
H           -2.90610816414858        2.05930158208133       -0.97680330352825
H           -2.96789536922522        2.01982834430559        0.78866230807479
H           -1.20772083851160       -3.17147115622017        0.86466666682760
H           -1.18923855375021       -3.20699498866665       -0.92224030742374
H           -2.58788532162001       -2.54418199105349       -0.05497130891539
H            1.30481596142928       -2.90723205625515       -0.08133695871985
25
 energy: 8.131581455053 xtb: 6.6.1 (8d0f1dd)
C            3.39618501206942        1.16765824401332        0.19354305006298
N            2.34480446811810        0.14175286535169        0.16110851244350
C            2.59301882537185       -1.23437789995868        0.10157374904607
N            1.39352718859349       -1.90408244380193       -0.06510863162494
C            0.38454668571299       -1.02006058819259       -0.03635743117560
C            0.92497288749249        0.26733843399263        0.04820187466654
C            0.06867027792225        1.39454374705309       -0.03026065401697
O            0.38985857700407        2.57958439879903       -0.06899869686789
N           -1.32574801254132        1.02892649989666       -0.05801511390980
C           -2.30242032691596        2.10845519748163       -0.07126890832623
C           -1.86344274688799       -0.21884599523480       -0.05154968135623
O           -3.06008814910631       -0.42738391857034       -0.04523539370594
N           -0.95771962969070       -1.29271389299140       -0.06456206591439
C           -1.50015356787880       -2.63758412157738       -0.04267061677333
H            4.18713757731034        1.41362269945827        1.09296446832266
H            4.14446269840097        0.88336224172417       -0.53449625458451
H            2.88716528598384        2.09557569922250       -0.06871598067516
H            3.52254897323004       -1.65294106038521       -0.21925999975225
H           -1.75598376985511        3.04734786411123       -0.03401923608671
H           -2.90756776420072        2.05778187099346       -0.97763566328816
H           -2.96913311246926        2.01883392839063        0.78763040167734
H           -1.20868527091459       -3.17050352383276        0.86572893660453
H           -1.19007230535545       -3.20666000884165       -0.92122212223194
H           -2.58820005140082       -2.54281524858351       -0.05431501530403
H            1.30453091794345       -2.90778638634599       -0.08002563108220
25
 energy: 8.144848352752 xtb: 6.6.1 (8d0f1dd)
C            3.39764039215579        1.16752028158035        0.19472727974017
N            2.34513901482240        0.14185749090573        0.15858896385789
C            2.59294171214164       -1.23416256351449        0.09952648753448
N            1.39336743085839       -1.90410007019398       -0.06391056972428
C            0.38445687560861       -1.01967353614751       -0.03607249519047
C            0.92570062082573        0.26746018976486        0.04731334935355
C            0.06782533930715        1.39461008351285       -0.03039555929458
O            0.38930029450468        2.57943457836409       -0.06912683713853
N           -1.32537403922110        1.02908083193975       -0.05827955778905
C           -2.30276148776025        2.10807961660673       -0.07179219086838
C           -1.86354780538459       -0.21911053036874       -0.05136512107377
O           -3.06018243137601       -0.42695663755745       -0.04524546481479
N           -0.95774507864529       -1.29241572636718       -0.06346906672364
C           -1.50036952611801       -2.63742418907554       -0.04184830239618
H            4.18807662136759        1.41153155281415        1.09382962632605
H            4.14509923912361        0.88509042546681       -0.53493131821340
H            2.88849419358537        2.09626369333508       -0.06576073010152
H            3.52201573932170       -1.65362860886854       -0.21927802447027
H           -1.75733701792697        3.04749789998656       -0.03459311883489
H           -2.90781810641523        2.05675211958942       -0.97822663469064
H           -2.96966715439337        2.01798802341378        0.78695138615379
H           -1.20928429427000       -3.17017801491531        0.86665944763069
H           -1.19028247452771       -3.20644713094878       -0.92030235688030
H           -2.58841929829208       -2.54230646500379       -0.05379055692758
H            1.30494590864422       -2.90773471214679       -0.08217473931706
25
 energy: 8.085605885751 xtb: 6.6.1 (8d0f1dd)
C            3.39829988943053        1.16737590264325        0.19559183352479
N            2.34520034078672        0.14189462046486        0.15785644865132
C            2.59289245092485       -1.23386946592807        0.10259323237120
N            1.39318570646675       -1.90386837562134       -0.06244529232311
C            0.38426380864448       -1.01909786708642       -0.03598911961259
C            0.92602951866448        0.26770840023334        0.04765244912121
C            0.06743782919491        1.39488392372640       -0.03056952014131
O            0.38882093507916        2.57961695672582       -0.06969146182411
N           -1.32474510529415        1.02905147708765       -0.05848819435038
C           -2.30272655759467        2.10768373597649       -0.07215932958687
C           -1.86353757011199       -0.21943496000887       -0.05111968847833
O           -3.06022039430766       -0.42627415587443       -0.04485549887503
N           -0.95773806520136       -1.29224424285103       -0.06308234601106
C           -1.50034612450275       -2.63742966810127       -0.04141392975891
H            4.18740390385829        1.41100833270759        1.09502154950072
H            4.14577281980347        0.88425728475229       -0.53365017389770
H            2.88955954138230        2.09615711280948       -0.06579032230933
H            3.52094534997709       -1.65311324075167       -0.22508101610911
H           -1.75814608940624        3.04754664678672       -0.03478985714806
H           -2.90752712612573        2.05603890947680       -0.97879471379887
H           -2.96986488381128        2.01704754605140        0.78634211878521
H           -1.20950421762035       -3.16987281610703        0.86726346966885
H           -1.19003486894773       -3.20646937325851       -0.91967777839741
H           -2.58838314936903       -2.54212183611551       -0.05368223921209
H            1.30517672601621       -2.90744624556590       -0.08400672364174
25
 energy: 8.090631341530 xtb: 6.6.1 (8d0f1dd)
C            3.39762995208287        1.16762879810434        0.19513284045307
N            2.34515520912310        0.14187561071454        0.15698649719043
C            2.59284280513269       -1.23353093807369        0.10072967996943
N            1.39315732100375       -1.90394042230700       -0.06210025455132
C            0.38419198076514       -1.01918364449094       -0.03604026117591
C            0.92574308031019        0.26765944077498        0.04783081496333
C            0.06764267910404        1.39481679275323       -0.03064098060386
O            0.38922980514780        2.57966956770516       -0.06969092617948
N           -1.32456306571831        1.02893965701997       -0.05829545404781
C           -2.30237229218316        2.10775842435794       -0.07189711661148
C           -1.86345488907935       -0.21947609492648       -0.05098188452626
O           -3.06023621028822       -0.42601225738071       -0.04469046677710
N           -0.95787229391896       -1.29240259746259       -0.06289271293009
C           -1.50034230580348       -2.63758148445249       -0.04153182353915
H            4.18655994417441        1.41154432496869        1.09479599818014
H            4.14554395284147        0.88428843266289       -0.53347236950937
H            2.88880072141666        2.09603205923087       -0.06677822200925
H            3.52090001271969       -1.65357102564096       -0.22138582232147
H           -1.75750067028158        3.04746607876234       -0.03443490097011
H           -2.90711033677548        2.05635655808879       -0.97857855967523
H           -2.96949557281748        2.01721381978184        0.78659325750104
H           -1.20940959566273       -3.17020230725909        0.86702219315533
H           -1.18982256160531       -3.20642914812829       -0.91990218308401
H           -2.58836519140152       -2.54241559854579       -0.05385429960687
H            1.30536218965005       -2.90747544408550       -0.08488914714671
