72
 energy: -99.359578108277 gnorm: 0.007058520000 xtb: 6.6.1 (8d0f1dd)
N           -2.14588677190313        2.82943780765534        2.14448743721277
C           -1.95711336284843        2.11725230106987        1.13670704992455
C           -2.97247709719786        1.87725249938622        0.05409873248530
C           -3.34446761836214        0.40575916349917        0.02474693570853
C           -3.97786545248700       -0.14793043383869       -1.08604839184006
C           -4.35422042875051       -1.46987388038672       -1.10136796788554
O           -6.76387594504457       -0.35613825249186        0.05094045968531
C           -7.77413239450076       -0.47513073680194       -0.58122929237594
C           -4.13569013357016       -2.29270249655691        0.00747597875963
O           -4.55883273572131       -3.56910390237185       -0.10899093891800
C           -4.45794844856844       -4.42906836994798        1.00356679971877
C           -3.50936048358363       -1.74883652095962        1.12408448254675
C           -3.12234867801260       -0.41921873202660        1.12092264774604
C           -2.27530681211041        2.29958023430917       -1.26489360559938
C           -1.23585793237263        1.29747184950143       -1.79965512466250
C            0.01209522269077        1.23047962745417       -1.00969873738209
N            0.61169885110026        0.11593327107501       -0.61333436707059
C            1.98012653726252        0.14584879103190       -0.15289426720187
C            2.95074437585323       -0.27664964406567       -1.27383222596349
C            4.37487536585884       -0.10262605642029       -0.82750920726708
C            5.03270397151508        1.10040951850795       -1.02711046547583
C            6.34279129093520        1.27146869165837       -0.60828438367705
C            7.02147957483268        0.24073988732863        0.02612113170448
O            8.29153657578310        0.29150915321514        0.46685864970764
C            9.04237042048616        1.46725482142449        0.26736149249114
C            6.35142615411482       -0.99542189462483        0.24377014899136
O            7.08281308008674       -1.94099031374532        0.86546997426790
C            6.51641287022007       -3.20796172922698        1.10066166606940
C            5.04128214852317       -1.14264191763052       -0.18409803738045
C           -0.00848203264130       -1.18012730927637       -0.75361599638803
C           -4.28824734817406        2.69233429526363        0.23597363618723
C           -5.05014140075682        2.25859333487478        1.48529950504959
C           -4.05797361043551        4.20065893213649        0.26515014271858
H           -4.19923318482437        0.46191562130378       -1.94899398895143
H           -8.20110122172406        0.34561259631456       -1.17843085241401
H           -8.36234702407502       -1.40511749301011       -0.59281010215767
H           -4.84991822089872       -1.88951975132196       -1.95263306768635
H           -5.01587918210360       -4.03920193670072        1.85957135574500
H           -4.89556276277235       -5.37368288425964        0.68671780158420
H           -3.41444167933261       -4.59307061265371        1.29031708492304
H           -3.33614648125233       -2.34198366680469        2.00680417709089
H           -2.66239514784505       -0.01512391453139        2.01031521259892
H           -3.03593632104942        2.43337165093754       -2.03321456650621
H           -1.79119515438450        3.26461850873058       -1.10913663584004
H           -1.69396218978469        0.31681045317939       -1.90901092269297
H           -0.95683640199534        1.65052253322101       -2.80122732565917
H           -0.99912714418051        1.60767908212956        0.91429978881174
H            0.56101835170734        2.14976191338709       -0.86497491012303
H            2.09089600350081       -0.52580850631081        0.70204546701991
H            2.23180278027037        1.15779144383523        0.17081604287477
H            2.76059228501133        0.34645578876717       -2.14972368653655
H            2.76594322330385       -1.31715397686155       -1.54325459093596
H            4.53039862296322        1.91436748918248       -1.52749595936521
H            6.83121943590360        2.21512144151276       -0.78729487216860
H            8.59673478565582        2.32036804376699        0.78787227610396
H            9.14511923339168        1.70059465987496       -0.79660975210121
H           10.02456557022663        1.26108970807476        0.68813324612264
H            7.29328760326211       -3.78782334574710        1.59507071071908
H            5.64269569919113       -3.14166795952930        1.75689423474938
H            6.23626829553236       -3.70216530801844        0.16520056929979
H            4.52813856888429       -2.07962852432921       -0.03418187454180
H           -0.05935934873645       -1.48774571225879       -1.80040425300463
H           -1.02035904746599       -1.16266141876906       -0.34339055960366
H            0.57470576630591       -1.91569853737472       -0.20516158634872
H           -4.91409711903793        2.45490606682238       -0.63219811452256
H           -4.44205102984222        2.41496181688421        2.37081810493759
H           -5.33798009182252        1.21276910298408        1.42202874348523
H           -5.95549340976872        2.85228981391186        1.58066827672830
H           -3.41115659544869        4.46537077163993        1.09608831324979
H           -3.62124649666099        4.56556160054315       -0.66077681721104
H           -5.01136336804651        4.70376943128614        0.40371022894870
H           -1.38180975722651        2.93892154371902        2.80368378413636
