  25
        -42.08839739
 C          3.2211981762        1.1344222155        0.0200232522
 N          2.2671163176        0.0603810432       -0.0021211901
 C          2.5579234157       -1.2428682381       -0.0138003800
 N          1.3915766568       -1.9286584488       -0.0114150320
 C          0.3463884741       -1.0537646078        0.0016905508
 C          0.9020767165        0.2203971049        0.0088198152
 C          0.0727448238        1.4052513276       -0.0001680184
 O          0.4644252576        2.5485816999       -0.0127400773
 N         -1.2845517472        1.0773153377        0.0011581711
 C         -2.2389700465        2.1749763226       -0.0068725052
 C         -1.8540904605       -0.1853744725        0.0038311611
 O         -3.0439947932       -0.3472149289        0.0038934532
 N         -0.9772857918       -1.2857616186        0.0043912652
 C         -1.5281503830       -2.6241724664        0.0036218060
 H          3.6641184103        1.2239846900        1.0142541438
 H          4.0182484423        0.9344752173       -0.6942876791
 H          2.7182523898        2.0692906844       -0.2258317982
 H          4.6494863055       -3.8028392957       -0.0111036363
 H         -1.6842477034        3.1109935144       -0.0002546708
 H         -2.8677172211        2.1137744065       -0.8961538259
 H         -2.8854113073        2.1104989973        0.8692620331
 H         -1.2114253657       -3.1662002412        0.8958369368
 H         -1.2126056096       -3.1654390470       -0.8894555389
 H         -2.6141799340       -2.5375609397        0.0043834140
 H          1.3353440727       -2.9359329947       -0.0195464075
