25
 energy: -42.161150432224 gnorm: 0.006519392140 xtb: 6.6.1 (8d0f1dd)
C            3.39977951862093        0.87814901331937        0.30579277710260
N            2.38819431391866       -0.12487770403060        0.12168242791313
C            2.57421470622700       -1.43522101717651        0.00112681375903
N            1.37744511789121       -2.06312461910918       -0.12533849163805
C            0.40425161373653       -1.11638113731271       -0.07757464422924
C            1.03347153078733        0.12438142475384        0.07801868439310
C            0.30960908446580        1.32115249849303        0.18905444245047
O           -2.77061158865928        2.52068590181645       -0.66535085870965
N           -1.01231321617005        1.13608308425309        0.14789096147719
C           -1.86130420848670        2.33922597580800        0.34576614596951
C           -1.72230897189481       -0.06668919939179        0.01011916906194
O           -2.91388673131788       -0.13838185969418        0.02281151629526
N           -0.92860085317223       -1.23173055690459       -0.14287155853525
C           -1.59013855720001       -2.51231250747509       -0.29612967856789
H            3.83750044046083        0.79924123368440        1.30213986298077
H            4.19027371461823        0.76323122693420       -0.43490752167824
H            2.93285365706859        1.85520663481298        0.20012504955451
H            3.52305312329021       -1.93296898608378        0.00654720989917
H           -2.36329730060188        2.88091403149429       -1.46649518232509
H           -2.43737643364027        2.18986893059810        1.26988208068192
H           -1.15512171757705        3.16940244748394        0.47013774239398
H           -1.37614958008393       -3.15751614242863        0.55683602491181
H           -1.27226423162342       -2.99437899662558       -1.22093517726954
H           -2.66243062647910       -2.32478417044711       -0.33966878450699
H            1.25558870993242       -3.06093696516977       -0.22748739347907
