72
 energy: -99.694267254309 xtb: 6.6.1 (8d0f1dd)
N           -1.60957410156370        3.01448869344687        2.31421252009527
C           -1.59614941522901        2.20487677069084        1.34805458267838
C           -2.72011596367228        2.08772687743636        0.34064212938857
C           -3.32352920173916        0.67698641350790        0.33631576223095
C           -4.29258464057786        0.27318862334958       -0.61053734277018
C           -4.92268190395668       -0.97345606817452       -0.58612288804326
O           -5.94899734431619       -1.51226076798897       -1.37422789640739
C           -6.72707398448672       -0.88252474381949       -2.42024053904430
C           -4.46375287271964       -1.88102500597320        0.41957612700061
O           -5.02668971181047       -3.12261877312058        0.39893079318582
C           -4.67741263415975       -4.05422102627837        1.39160074113148
C           -3.50880461179864       -1.49138716713505        1.34730906915842
C           -2.95677820443947       -0.21788863149600        1.32350068371442
C           -2.07066864486561        2.40197817052431       -1.03341701121976
C           -1.19615240335540        1.27609809364726       -1.61869747614207
C            0.10648419500782        1.14337442224054       -0.92602403076823
N            0.67904675010145       -0.05599962226513       -0.54729593841163
C            2.06091399051698       -0.09828478702246       -0.17430776548154
C            3.00263268901043       -0.58232225871561       -1.30421691660107
C            4.43194735984501       -0.47446436803253       -0.86859951555083
C            5.15171872001976        0.68606505661992       -1.08776281661444
C            6.46312946142237        0.80559006616317       -0.65038991905184
C            7.07645223060339       -0.23614147836345        0.02220602448818
O            8.35656272291016       -0.23354655141516        0.49408118148588
C            9.14407699716221        0.91064953448151        0.29037559193203
C            6.34988780079648       -1.42525036295708        0.25833379735934
O            7.03782977740628       -2.39685758903939        0.92342600249768
C            6.40286892905690       -3.62224425824864        1.17809360811628
C            5.04442401093954       -1.52600951164859       -0.18402597344709
C           -0.00990748829240       -1.30353286541886       -0.72692064074524
C           -3.87514476307977        3.09179882237050        0.61896899195693
C           -4.54906981010426        2.80816866910375        1.96088502615332
C           -3.45232866173138        4.56007469997780        0.56585346397446
H           -4.54965058375470        0.98053837225671       -1.38383812170354
H           -6.77242073885405        0.19466689032938       -2.22163358597523
H           -7.72953260395572       -1.35312722036029       -2.72066431565839
H           -6.27706439461133       -1.05315859433439       -3.39362389410392
H           -4.95065884142426       -3.70848455970213        2.39472941105028
H           -5.25146188944254       -4.94852338610921        1.15474695472288
H           -3.60937167321388       -4.30044129202063        1.37549030551342
H           -3.18431790896619       -2.16724287823505        2.12671645618433
H           -2.24825729732111        0.06386884034772        2.09156583590421
H           -2.86621149744469        2.62966874321380       -1.74440393724611
H           -1.45081289091190        3.29559455247706       -0.93180218082713
H           -1.75193152813472        0.34005142214127       -1.59718949008430
H           -1.03144579396353        1.53504013010475       -2.67776466061845
H           -0.72084202234657        1.59202554271186        1.08300005001239
H            0.75647606776255        1.99989852675293       -0.88540906562370
H            2.17422273658510       -0.76376629078797        0.68941106187922
H            2.37301128614895        0.90368068722264        0.12840288228767
H            2.82762857302904        0.04097514210633       -2.18266563589969
H            2.75617448873228       -1.61480241691106       -1.55620028845037
H            4.69443592910393        1.51071091268675       -1.61426546451649
H            6.99837148518530        1.72102225718531       -0.84676933160638
H            8.71191741842309        1.79294629319345        0.77525425639494
H            9.29081715679876        1.11854495571521       -0.77523698318550
H           10.10658001065549        0.68532496680422        0.74760575249743
H            7.14283326437802       -4.22973900328495        1.69737677409080
H            5.52376977143979       -3.49917541716128        1.82020441958942
H            6.10782074314325       -4.12758976267549        0.25190401535311
H            4.48164641284724       -2.43090542962810       -0.01229889425498
H           -0.15544076017422       -1.56108057485001       -1.78365337751870
H           -0.99007194275186       -1.26177025616411       -0.24456836982077
H            0.57141522493180       -2.09552197038468       -0.25777494851056
H           -4.61675975415131        2.93110409855210       -0.17216662430721
H           -3.85563285337213        3.00898295699241        2.77073434472477
H           -4.87375549929038        1.77230432407017        2.02247888721622
H           -5.41926084129116        3.45027251644547        2.07723873042126
H           -2.69159209075625        4.75983508652431        1.31335624627764
H           -3.07223404872452        4.83629376589196       -0.41430027885286
H           -4.31667161679741        5.18620186262550        0.77849278863445
H           -0.76662300303734        3.03075081856163        2.88772772985073
