  25
        -42.12062916
 C          3.1866129230        1.4046460878        0.0243124513
 N          2.4084479414        0.1897292420        0.0012763709
 C          3.0167641968       -1.0339830511       -0.0118686198
 N          2.4446717491       -2.1535440477       -0.0191218353
 C          0.4287171961       -1.0861070078        0.0013432762
 C          1.0369978900        0.1191109164        0.0045353438
 C          0.0968300859        1.2623955049       -0.0012283427
 O          0.4348573737        2.4193766661       -0.0074405076
 N         -1.2522584978        0.8878334124       -0.0021762564
 C         -2.2483296222        1.9474525507       -0.0122565286
 C         -1.6822993310       -0.4025763072        0.0017928649
 O         -2.9688589351       -0.5839178322        0.0053269741
 N         -0.8258503580       -1.4037667754        0.0009698088
 C         -3.4705322651       -1.9214474687        0.0131115059
 H          3.7576462167        1.4692244185        0.9527704381
 H          3.8811652231        1.4196443761       -0.8169539012
 H          2.5244968937        2.2660679276       -0.0426981386
 H          4.1018877276       -1.0328749200       -0.0165954382
 H         -1.7271587221        2.9031513848       -0.0101652541
 H         -2.8688324684        1.8633171382       -0.9039145500
 H         -2.8839629018        1.8669267443        0.8688231126
 H         -3.1417329642       -2.4486847032        0.9091895901
 H         -3.1339473301       -2.4630149643       -0.8712665138
 H         -4.5556313582       -1.8223238177        0.0070235489
 H          1.3601131561       -2.1464772543       -0.0131591936
