  25
        -42.17002953
 C          2.8507342716        0.9619580297        0.9062142495
 N          2.1626998167       -0.0464671062        0.1034014830
 C          2.8146601688       -0.9424911115       -0.5052919860
 N          3.3174025089       -1.9279643745       -0.9203913337
 C          0.0384329809       -1.2116736513        0.2501031378
 C          0.7345453491       -0.0551582711        0.0832474059
 C          0.0372510640        1.2131360124       -0.1285536178
 O          0.5904944404        2.2731303559       -0.3229377778
 N         -1.3414397549        1.0913210479       -0.0898225960
 C         -2.1423766494        2.2935065576       -0.2673900049
 C         -2.0625975959       -0.0743849584        0.0817398265
 O         -3.2623892253       -0.0957710849        0.0859401486
 N         -1.3024102933       -1.2400874329        0.2567118919
 C         -2.0092749937       -2.4919041433        0.4383104462
 H          2.5762743282        0.8341089865        1.9525010484
 H          3.9260206207        0.8561571818        0.7931215525
 H          2.5376093752        1.9519584325        0.5697721008
 H          3.9175130260       -2.2388842404       -1.6643407272
 H         -1.4698910680        3.1438083641       -0.3470729198
 H         -2.7477040346        2.2052332775       -1.1692481853
 H         -2.8115051955        2.4131469702        0.5841569422
 H         -1.6833072386       -2.9795079257        1.3564020779
 H         -1.8307275687       -3.1548097052       -0.4085194340
 H         -3.0738262596       -2.2725246760        0.5019595507
 H          0.5433481488       -2.1575940878        0.3986982716
