25
 energy: -42.166762195585 gnorm: 0.008823671517 xtb: 6.6.1 (8d0f1dd)
C            4.25275905118033        0.48073874007460       -0.04167733539220
N            3.41786158892824       -0.42241147997494        0.23118492747036
C            2.72976215073279       -1.47270103433627        0.02011178275949
N            1.39730531615636       -1.60034898847612        0.05615718135610
C            0.42000953922741       -0.60018526905474        0.06360517851868
C            0.71218463906718        0.72460444214708        0.11280455011048
C           -0.32550333341989        1.73212649353533        0.08289679902979
O           -0.11297423539925        2.92222522972225        0.11018938962184
N           -1.61776830007617        1.21986220596597        0.00990483001319
C           -2.72577301796740        2.15736965952049       -0.03301463795229
C           -1.94557249950719       -0.10940551222824       -0.02499913881762
O           -3.08343512131707       -0.49453643047911       -0.08194341694829
N           -0.87549168652318       -1.02677194364983        0.00333874004682
C           -1.24012648175496       -2.43144786786908       -0.04045766102813
H            4.71401542709974        1.03464921781145        0.76146946167333
H            4.50823834813991        0.74145874781661       -1.06117446574017
H            1.71548726647008        1.09462398267705        0.17723420266120
H            3.27954343240816       -2.40800087479537       -0.05364373832190
H           -2.31105944401524        3.16329216537306       -0.02645728859068
H           -3.31466138267233        1.99354790602868       -0.93535045733330
H           -3.37273381409114        2.00862641472448        0.83162013366636
H           -0.91025827991823       -2.95592005974713        0.85789798841171
H           -0.85767466152486       -2.91469676444819       -0.94137776728422
H           -2.33046149880672       -2.47105191199271       -0.07393708481979
H            1.03675851168334       -2.54740852674480        0.02678944478931
