72
 energy: -99.717454452978 xtb: 6.6.1 (8d0f1dd)
N           -1.63619231086977        2.92344569789183        2.31907131974253
C           -1.58557446976152        2.18877004018468        1.29855489276952
C           -2.72014662948028        2.05069187574792        0.31661746876423
C           -3.29691140431746        0.64385763455225        0.39162162653357
C           -4.26981242795022        0.24572443900321       -0.52952567509379
C           -4.83841978148187       -1.01237197475920       -0.48207575719406
O           -5.80557381812078       -1.47316303925112       -1.32616613845037
C           -6.33595780683012       -0.60226934181084       -2.29133876379734
C           -4.41759046788065       -1.93349405709664        0.50291803539457
O           -5.02638764128362       -3.15338219442705        0.45751631612668
C           -4.67633609568654       -4.11896776108666        1.41434499693270
C           -3.45464911274365       -1.54056910776439        1.41249664810964
C           -2.90809957541428       -0.26256389675072        1.36032578141840
C           -2.12345394532267        2.30111363722763       -1.09595982950710
C           -1.26974671457173        1.15352160601924       -1.67104724198270
C            0.07258986917381        1.07905752442324       -1.05728680226753
N            0.59849465123452       -0.07130348338948       -0.50179977350540
C            1.99532710009100       -0.04001757241738       -0.14780465468316
C            2.92833981723845       -0.53691125356400       -1.27312280901467
C            4.36355732424347       -0.43520742865277       -0.85426437996653
C            5.08945850655412        0.72250162474132       -1.06853559634219
C            6.40289134669880        0.83302963214947       -0.63228601230445
C            7.01235353490672       -0.21632126633942        0.03176535476292
O            8.29094118850415       -0.22257351529170        0.50769939151607
C            9.08673059985874        0.91838202003880        0.31857460306147
C            6.28280554286376       -1.40633695531887        0.25390540106188
O            6.96793799965210       -2.38780848777991        0.90708353049632
C            6.32891748318420       -3.61347131141436        1.15092777223551
C            4.97596747619908       -1.49724905725991       -0.18644751739695
C           -0.03442043815968       -1.33197101919608       -0.80992686194635
C           -3.87406164911161        3.06224023307121        0.57056795831732
C           -4.56912036538528        2.80143367684803        1.90577388825741
C           -3.41511232900555        4.51794246249366        0.50366823765361
H           -4.58672865565312        0.93802862949057       -1.29232749542945
H           -6.78618562830734        0.28572833174557       -1.83452858283829
H           -7.11000125705752       -1.17373157932570       -2.80198958878073
H           -5.57923810857425       -0.29206972820356       -3.02034009250202
H           -4.88651069832846       -3.77689379891754        2.43342931949112
H           -5.29764422329117       -4.98572531337138        1.19145177154468
H           -3.62109070323633       -4.40336634911621        1.33736241409812
H           -3.12009697967559       -2.21898300319848        2.18190908655440
H           -2.17638450308800        0.01640917229844        2.10231754302046
H           -2.94285754812904        2.49739186971684       -1.78897463015196
H           -1.49961272245774        3.19518104388371       -1.05663848154354
H           -1.81277527073214        0.21703276746185       -1.56283015213869
H           -1.15898473077245        1.34588669316547       -2.74776158109634
H           -0.69627236563568        1.62044237357815        0.99083263694186
H            0.75140114388096        1.90108111092419       -1.18477603142037
H            2.17164340209908       -0.63823888738303        0.75369948558107
H            2.26021254779731        0.99399818147069        0.09228191444814
H            2.74532786794247        0.07365931574962       -2.15921835136007
H            2.66618439164166       -1.57032133364760       -1.50286990435086
H            4.63575087777183        1.55370320657965       -1.58766240656795
H            6.94193312115520        1.74853308910667       -0.81944462078839
H            8.66439671456647        1.79745878977105        0.81759769122895
H            9.23231573258048        1.14063952422709       -0.74416096890914
H           10.04854935189592        0.67812461096996        0.76993832159427
H            7.06851601053848       -4.22900966329722        1.66140279344912
H            5.45226345956067       -3.49474482397108        1.79732353467977
H            6.02911365543181       -4.10784162229026        0.22047031067581
H            4.40985201327502       -2.40187686324445       -0.02472242287716
H           -0.10584811296933       -1.54299996903806       -1.92092456363916
H           -1.06971643289598       -1.31563149618977       -0.45870936492113
H            0.48298390789825       -2.08296042175286       -0.20683287052510
H           -4.61117099761298        2.90835745543186       -0.22700480558092
H           -3.86966841548378        2.96099136179220        2.71903936581474
H           -4.94329491432050        1.78156027288551        1.95613858197356
H           -5.40842504574937        3.48369817909556        2.02327632022334
H           -2.65247776796757        4.70262805816760        1.25277353798484
H           -3.02044758132028        4.76928629273128       -0.47749605068247
H           -4.26029251166335        5.17289525922197        0.70340724709436
H           -0.78813407563692        2.94764591535322        2.88305043450499
