  72
        -99.30661421
 N         -0.1728397409        0.2213797764        3.5506574819
 C         -0.5154729778        0.3543124036        2.3827829560
 C         -3.1186625062        2.1196901554       -0.1078538206
 C         -3.6089624385        0.8282620744        0.1378824006
 C         -4.1889106968        0.0480256627       -0.9069920603
 C         -4.6123707173       -1.2456213758       -0.7148594240
 O         -5.1820951449       -2.0295764586       -1.6598789841
 C         -5.4896255545       -1.4751882052       -2.9161155676
 C         -4.4590559697       -1.8632733776        0.5607418441
 O         -4.8637428608       -3.1429218544        0.6474100139
 C         -4.7937027922       -3.8032334640        1.8899715238
 C         -3.9268507677       -1.1036641250        1.5992552780
 C         -3.5292583092        0.1997496068        1.4049038380
 C         -2.8620115899        2.5747460451       -1.5135387862
 C         -1.8470494881        1.7028700767       -2.3156423723
 C         -0.5078393818        1.6844034639       -1.7029249808
 N          0.0427352868        0.6367767816       -1.1020223063
 C          1.4005570287        0.6994367240       -0.6167226710
 C          2.4013652887        0.1491322904       -1.6524777587
 C          3.7902719011        0.1225055324       -1.0793667509
 C          4.5842796947        1.2571643393       -1.0896395652
 C          5.8601739337        1.2349836683       -0.5475474517
 C          6.3686632103        0.0746307751        0.0179827116
 O          7.5925795923       -0.0625517843        0.5640325703
 C          8.4737877061        1.0367161253        0.5582798243
 C          5.5600398880       -1.0939576616        0.0363559361
 O          6.1307190414       -2.1800970419        0.5982864987
 C          5.4275176141       -3.3990869621        0.6072977861
 C          4.2860754977       -1.0463156040       -0.5062699869
 C         -0.5908865380       -0.6606004462       -1.1005233930
 C         -2.8382042077        3.1574192139        0.9480311134
 C         -3.8062122991        3.1697231012        2.1391385916
 C         -1.3775896463        3.0934389564        1.4187154748
 H         -4.3693737159        0.5157475772       -1.8593821564
 H         -6.1515351062       -0.6082960455       -2.8217643064
 H         -6.0037905151       -2.2619275194       -3.4654536861
 H         -4.5845163947       -1.1874715477       -3.4632711900
 H         -5.4126363007       -3.3066471666        2.6432537555
 H         -5.1780365139       -4.8055042604        1.7113085685
 H         -3.7626111443       -3.8700293104        2.2514309710
 H         -3.8218960868       -1.5353327907        2.5820016892
 H         -3.1087683490        0.7307108810        2.2383398543
 H         -3.7935714692        2.5845433851       -2.0867585551
 H         -2.4835358451        3.5973256581       -1.5021068894
 H         -2.2394391958        0.6965898409       -2.4330697595
 H         -1.7681939752        2.1639072349       -3.3046392945
 H         -0.9853116625       -0.4201639821        1.8014815508
 H          0.0646345552        2.5981739175       -1.6986043844
 H          1.4739139107        0.1171778646        0.3057686765
 H          1.6565381909        1.7345251143       -0.3844072396
 H          2.3732546420        0.7852140425       -2.5389094402
 H          2.1032321264       -0.8590402333       -1.9428630341
 H          4.2184449433        2.1696400221       -1.5352042302
 H          6.4574670545        2.1313507883       -0.5776466534
 H          8.0745329364        1.8734723766        1.1398134155
 H          8.6918825529        1.3703501521       -0.4605943088
 H          9.3897031446        0.6784801950        1.0243006873
 H          6.0958689000       -4.1184736284        1.0764104835
 H          4.5056075744       -3.3277061824        1.1937081935
 H          5.1914355162       -3.7335435117       -0.4078707175
 H          3.6679504418       -1.9305579604       -0.5035124403
 H         -0.6430939456       -1.0781020658       -2.1093345179
 H         -1.6038871726       -0.5910697824       -0.7013521352
 H         -0.0132483931       -1.3408083388       -0.4790481158
 H         -2.9598266417        4.1285584586        0.4490619684
 H         -3.4605794828        2.5556172243        2.9657904013
 H         -4.7929086886        2.8246196984        1.8391587134
 H         -3.9023157099        4.1876509061        2.5119231102
 H         -1.1246130265        2.0847329998        1.7853980867
 H         -0.7014622398        3.3268955913        0.5976187361
 H         -1.2136386458        3.8095725665        2.2193744143
 H          0.2590284116        0.9483135001        4.1060832484
