25
 energy: -42.158061874357 gnorm: 0.005343078532 xtb: 6.6.1 (8d0f1dd)
C            3.26238302784482        1.19168327574989       -0.02066596791720
N            2.19165723812710        0.27858081802215       -0.03163802767608
C            3.47674651301334       -0.28657910621889       -0.06811669347664
N            1.15220044579146       -2.20597968265866       -0.07771412598095
C            0.33879460256079       -1.22972196362125       -0.04266986829132
C            0.91136529545110        0.10998140706698       -0.01688332201215
C            0.05795003614691        1.31618020358043        0.03656500324359
O            0.53643732737922        2.42831156960693        0.05578386279161
N           -1.29016403432613        1.06213817483180        0.06255023344419
C           -2.20748858717042        2.18731107725089        0.12063545415207
C           -1.88305913996924       -0.19686471629655        0.03376477921592
O           -3.07854495164611       -0.31451812720050        0.05624788035976
N           -1.03866184664160       -1.30075414195365       -0.02184391872573
C           -1.66703922522195       -2.61112954874044       -0.04805219673748
H            3.43993631167606        1.73293898922536        0.90337793484515
H            3.39162956834068        1.80344638004358       -0.90699687047291
H            3.79056821748659       -0.76937198640677       -0.98134336771085
H            3.79784360630881       -0.80747963427406        0.82759631266448
H           -1.62400440264266        3.10509735891553        0.13435204319308
H           -2.86907688225248        2.17022217795469       -0.74638230165632
H           -2.82412189078401        2.11531940774043        1.01742723275904
H           -1.37302688022167       -3.19046816822398        0.82897300532858
H           -1.38738739530471       -3.14717871708645       -0.95644274493735
H           -2.74640340255632       -2.46966244779309       -0.03512565655680
H            0.80189796270951       -3.15326405791521       -0.09222706194478
