72
 energy: -99.646739806875 xtb: 6.6.1 (8d0f1dd)
N           -1.90122170303119        3.11714333484010        2.20049249425717
C           -1.63197014620805        2.28757673509560        1.29243810301626
C           -2.69806016863965        2.05231172031179        0.22832255489545
C           -3.28410355050131        0.64770998481235        0.25875858959339
C           -4.30839093146791        0.30877129682766       -0.64070775367682
C           -4.93486889199875       -0.92326463572616       -0.58896541887246
O           -5.93730501912446       -1.35036700393344       -1.41089615158931
C           -6.46499121424919       -0.46766850522240       -2.36823102673014
C           -4.53312884484508       -1.86523369101846        0.38872552761951
O           -5.19699086765940       -3.05589748285054        0.37158608627832
C           -4.87643976994912       -4.00761252819541        1.35295376966183
C           -3.53231667656710       -1.52165473578769        1.27382281292955
C           -2.91940110442927       -0.27689386405627        1.20823363510077
C           -2.08949225196833        2.27551926256362       -1.18586449479965
C           -1.18715697584215        1.10758369134967       -1.68051941825685
C            0.15394932758309        1.02189695507330       -1.05812843177730
N            0.61994562723691       -0.04847279215886       -0.30689385081174
C            2.02732329202165       -0.05777870644801        0.00450739881258
C            2.95992145327348       -0.53417062290798       -1.13638238189354
C            4.39948213511264       -0.41994388666928       -0.73113557262353
C            5.09462646958275        0.76420531304389       -0.90260806834435
C            6.42546760200343        0.87147650812650       -0.52330001023007
C            7.08715937363098       -0.20733853430031        0.03617968326977
O            8.39333517005545       -0.22143820050207        0.42831995072977
C            9.16796631948365        0.93139457880727        0.22150606422561
C            6.38446266452462       -1.41866847514175        0.22949880179895
O            7.11142022311919       -2.42751526416911        0.78993330371766
C            6.49615590796686       -3.67503812873572        0.98053196136058
C            5.06013363791645       -1.50662085687407       -0.15546425281517
C           -0.01331446104212       -1.33907881710824       -0.44296308047554
C           -3.91853592517917        2.94709931245308        0.65732095549910
C           -4.23714893025748        2.68740977798639        2.22156275468692
C           -3.64017732226428        4.39091667198083        0.09964009169045
H           -4.62725410106365        1.02365608093982       -1.38561776124712
H           -6.88836048692981        0.42758248806767       -1.90170167360936
H           -7.25896227608652       -1.02318611408843       -2.86696866744382
H           -5.71461650360549       -0.17239995688498       -3.10993938542241
H           -5.05118578737504       -3.62083001233427        2.36284539956248
H           -5.54291184754273       -4.84939545007725        1.17075788877323
H           -3.83701595469121       -4.34273049659267        1.26798577954510
H           -3.21197653979754       -2.20828672572326        2.03876561068511
H           -2.14881595283547       -0.03280141314034        1.91941525405423
H           -2.88633433962972        2.39397597778705       -1.92466815513683
H           -1.49828832236767        3.19099927442947       -1.19895350149290
H           -1.73006081437434        0.16718655749879       -1.59041357839547
H           -1.03087490394366        1.28573998321458       -2.75744612644959
H           -0.71519037996418        1.70208686426832        1.26649680634966
H            0.72338063172037        1.92826223902811       -0.95231350497179
H            2.17294637739635       -0.70596055779627        0.87203634596891
H            2.31756532977206        0.95866523389961        0.27791863654372
H            2.76937081342105        0.08648263743665       -2.01409742376540
H            2.72184406377401       -1.56979680906047       -1.38328632737720
H            4.60514852861168        1.61476267911062       -1.35398351980049
H            6.93971893739165        1.80636786062201       -0.68080536276062
H            8.78939631109443        1.78477611929110        0.79274336627406
H            9.22040467802173        1.20051864563988       -0.83900142233534
H           10.16454603414837        0.68051096933832        0.58110638851330
H            7.26220192644144       -4.31542936070719        1.41544753216964
H            5.64918570816832       -3.61030648286457        1.67254103306543
H            6.15928734883055       -4.10848491119888        0.03212055283901
H            4.51913441372802       -2.43117068771204       -0.02364655146446
H           -0.03950098092006       -1.70461337431082       -1.47485928992085
H           -1.03639915525107       -1.27759493178551       -0.07140662852545
H            0.53382040368681       -2.06399628400090        0.15480746378738
H           -4.81832639174827        2.63389107589065        0.12666620330321
H           -4.38986916938535        3.66930007302231        2.66454461578688
H           -3.36948772776132        2.26298589183736        2.68458757028085
H           -4.87995435653203        1.85961231922845        2.70371604359448
H           -2.64646947509754        4.75663637856118        0.33021075397880
H           -3.69766679338808        4.37047604637723       -0.99804964809444
H           -4.36210002508120        5.13457028253842        0.41678760395967
H           -1.48504139805071        3.08255618615668        3.12368628680377
