25
 energy: 51.086141367101 xtb: 6.6.1 (8d0f1dd)
C            3.27899653090634        1.44446879585985        0.12324486883274
N            2.54690217597276        0.19993748489101        0.04367251708422
C            2.95132518479495       -1.07285529830285        0.06822863875773
N            1.86267431805170       -1.89844527061653        0.03970423838418
C            0.70671588042152       -1.13547803302420       -0.01137430038484
C            1.18008638914404        0.18823945816176       -0.01954568047387
C            0.29490679518288        1.31691193191132       -0.06526280425125
O            0.61752163095022        2.50136498997907       -0.08878974189707
N           -1.00255621447033        0.90903050964842       -0.06831594146418
C           -2.04721712646905        1.91954938803822       -0.06192263239561
C           -1.44642080686541       -0.42873662532454       -0.02553556550537
O           -2.65650734378143       -0.48824099883252        0.02037680690312
N           -0.57293871380455       -1.48334377462023       -0.02568499766276
C           -3.00353161114890       -2.97574493603183       -0.11690990999110
H            3.93100996162387        1.46824220502841        0.99601068107777
H            3.89225810446451        1.59359343250215       -0.76806424704479
H            2.53622693417957        2.24867510329106        0.20519605902610
H            3.96901269516788       -1.41075295237084        0.11886974047667
H           -1.54758153445050        2.88601308088135       -0.05392400556631
H           -2.67704388291360        1.80339258503114       -0.94408377410728
H           -2.67548410483409        1.79876799315721        0.82152778007208
H           -2.70367821129494       -3.45861178447327        0.77919531196743
H           -2.74302348646440       -3.35985683697566       -1.07043324012842
H           -3.45598940663548       -2.02470662949092       -0.05789052982838
H            1.90274604913791       -2.90754361215860        0.07460825023597
