72
 energy: 41.195808791671 xtb: 6.6.1 (8d0f1dd)
N           -1.85028519870879        2.91452406750066        2.45879545900783
C           -1.82723149106900        2.16087497017463        1.45826156317397
C           -2.90096295653146        2.06459238263635        0.41074819169102
C           -3.50732869640442        0.67293175030308        0.46390911075530
C           -4.36809948940136        0.24202305754086       -0.54864226719583
C           -4.93641940591647       -1.01889628705360       -0.52983746090320
O           -5.77152210045056       -1.51648358902765       -1.48266558959285
C           -6.17772579043561       -0.67322211602570       -2.52820733633032
C           -4.63966980269874       -1.90103247497595        0.53414711662036
O           -5.22597849348976       -3.12898210856709        0.46165881404829
C           -5.02385551801979       -4.02961302436408        1.52046268776982
C           -3.80286809666878       -1.46644007472030        1.54523187962432
C           -3.24408245050620       -0.19365725770853        1.50816513693110
C           -2.20191235463253        2.28690229663799       -0.95634884865663
C           -1.42690224741637        1.08319906822525       -1.53526579374944
C           -0.20932462375348        0.67476691619591       -0.76676585974369
N            0.15708412409541       -0.56349639921539       -0.47272524557192
C            1.30745862708429       -0.88750369524528        0.10290599132126
C            3.75910023852705        0.00011250249010       -1.67288402085468
C            5.02671047489708       -0.05612114150560       -1.15064091829204
C            5.93905337984868        0.96302815017477       -1.43590433237275
C            7.20742074880573        0.90975064703384       -0.93857926965484
C            7.61766906482705       -0.13700577198719       -0.12639464696597
O            8.84200199550189       -0.24725827365206        0.44843881936028
C            9.77361541785465        0.78108902932336        0.24845981479940
C            6.73101231206432       -1.20927834328867        0.13512956764656
O            7.25339628139904       -2.21139289212501        0.89672896006580
C            6.43751270953682       -3.31390776556398        1.18898273661067
C            5.46628466874801       -1.16413327032051       -0.37513250888139
C           -0.74570672386765       -1.65882323023982       -0.76576981904190
C           -4.03581977895574        3.10566081951194        0.59843136580182
C           -4.77213898310191        2.87946808018514        1.91734321443080
C           -3.53248733997579        4.54591768947469        0.53297980226807
H           -4.59485081305670        0.91267949412081       -1.36034476643851
H           -6.69592014925270        0.21557245611589       -2.15390131208635
H           -6.86659163017769       -1.26383635885318       -3.12975630878203
H           -5.33061466731976       -0.36514764538909       -3.14969381097374
H           -5.39706557195000       -3.62839083955630        2.46802645429236
H           -5.59191830906528       -4.92172637293528        1.26065465833954
H           -3.96791975841848       -4.29333162839594        1.63347763326783
H           -3.57910268745354       -2.10789339292687        2.38278416889658
H           -2.61248409525074        0.11743035550126        2.32526528098617
H           -2.96553976770577        2.57296909101985       -1.68420118047835
H           -1.52010905165534        3.13164376002337       -0.85826588674773
H           -2.10888093655528        0.24065657965389       -1.63961536730686
H           -1.13206953975110        1.39046423014058       -2.55396513603266
H           -0.97698243378524        1.50439272592721        1.22019550608037
H            0.52424375709095        1.44375963973471       -0.57993093753268
H            1.47075543283013       -1.90474608951480        0.38979968108064
H            1.86070481448053       -0.06965869524611        0.60099463960264
H            3.45920869754250        0.83694509581040       -2.27705769752778
H            3.24061511822242       -0.92559737396874       -1.82569251642614
H            5.61867840752882        1.77038282348366       -2.06577876244631
H            7.87310997286730        1.71435417434475       -1.17853880716994
H            9.41254238244236        1.73899819729566        0.63810807688757
H           10.03592016243832        0.89259493899065       -0.80910838394630
H           10.65988737234697        0.48020122084285        0.80400774083064
H            7.04813127778489       -3.97273672896196        1.80234212073495
H            5.54224168843156       -3.03240649231554        1.75296138276157
H            6.13552190581593       -3.83643455353825        0.27662964904345
H            4.78682352348521       -1.98076237035580       -0.20032783175826
H           -0.87760702947879       -1.75783753862001       -1.83923510243430
H           -1.72101774056608       -1.47420837096377       -0.30241198081600
H           -0.31018013627002       -2.57631992196240       -0.36891840933742
H           -4.75076863203304        2.95969174934631       -0.22083810532311
H           -4.09395554966132        3.03989126746789        2.74707537968570
H           -5.16543246521384        1.86720075791199        1.97317542876252
H           -5.60054746109398        3.57943217439563        2.00528918895262
H           -2.79025494570951        4.71306777013937        1.30578448547405
H           -3.09912107048518        4.77631099029383       -0.43657037698898
H           -4.36589509057142        5.22651692422444        0.69720747718487
H           -1.01908714840705        2.89372303929435        3.04678141646128
