72
 energy: 3.299098305758 xtb: 6.6.1 (8d0f1dd)
N           -1.61072724276811        2.86792183836352        2.30223906130666
C           -1.63884873674019        2.15205052417403        1.26866234996869
C           -2.79434599753212        2.06358072382693        0.30551809550417
C           -3.38153812375479        0.66175130252733        0.37401232720379
C           -4.32816694466113        0.24732109660843       -0.56520279734222
C           -4.88270082927165       -1.01943465846883       -0.52824525456750
O           -5.80957024682536       -1.50240129854839       -1.40644029181595
C           -6.32210232909656       -0.63136229650263       -2.37966921476190
C           -4.48377714079238       -1.92684015209562        0.47676595711178
O           -5.07444188984472       -3.15751392617285        0.42566327006386
C           -4.79009083925032       -4.07466294450021        1.44942983486632
C           -3.55480595357253       -1.51302670171053        1.41282514620989
C           -3.01172704439464       -0.23391318189081        1.35952837546357
C           -2.19972579563497        2.29582517513349       -1.10837222417103
C           -1.32178155384503        1.14807167204105       -1.64036949614672
C           -0.07518846422431        0.96632578598024       -0.82169102399603
N            0.54351451633046       -0.27280464498116       -0.56638008321446
C            1.92832914664675       -0.33727192749695       -0.17118568918938
C            3.12162339611737       -0.38057263462433       -1.32755927430072
C            4.56191515524891       -0.29257556169325       -0.91051791196162
C            5.35941115882231        0.80601438416001       -1.17912097342883
C            6.66930965872120        0.86431332489062       -0.72325736199457
C            7.21498933141727       -0.18342367412314       -0.00650792168570
O            8.47434802555219       -0.22411133573238        0.51079816954753
C            9.31752028626027        0.87773272564251        0.29448299654764
C            6.43326970617943       -1.33481896815916        0.22661250148196
O            7.06249286100970       -2.32696673265483        0.92140981384844
C            6.35740004475664       -3.51231836233467        1.16872670616565
C            5.13613647774018       -1.37752078919595       -0.23854300310246
C           -0.26007141741025       -1.46217481086737       -0.67946669627034
C           -3.92813330360665        3.08688511197372        0.58563820965383
C           -4.59432499238355        2.81283054363142        1.93237486978301
C           -3.44342539952179        4.53390639235469        0.54241286074943
H           -4.63747297335414        0.93505520228907       -1.33479025537151
H           -6.79519173684769        0.24605121790071       -1.92673849299005
H           -7.07153204250029       -1.20764064887444       -2.92022178997991
H           -5.54663490153167       -0.29989614484408       -3.07841230786852
H           -5.06402850377931       -3.67961531789014        2.43389358070185
H           -5.39623333924598       -4.95407923478529        1.23351528024914
H           -3.73189095959099       -4.35659151327168        1.45766071150511
H           -3.24679304575997       -2.17819593631821        2.20409310658712
H           -2.30783398530237        0.06293337226338        2.12001455397349
H           -3.01984809984121        2.45609747373617       -1.81300515387330
H           -1.60286057429365        3.20827246170850       -1.08540671414124
H           -1.91276616274033        0.23425978955835       -1.64204689595114
H           -1.09244431612908        1.39211167967343       -2.70288433650894
H           -0.77226861955967        1.58420870251722        0.85186772881383
H            0.64285234067616        1.77093813927811       -0.87663026654704
H            2.02167758316763       -1.15383179876881        0.55982560857704
H            2.12420975684511        0.63043156959251        0.33783309262683
H            2.95799632646746        0.37016037503886       -2.10718213793389
H            2.94700140508278       -1.38096776033541       -1.74284148688697
H            4.96503253660971        1.63960178748054       -1.73925633297494
H            7.25448058049348        1.74820951529175       -0.92146571706978
H            8.91755991170958        1.78923790229387        0.75012745256302
H            9.49548731001889        1.05279059146733       -0.77282462252375
H           10.26052264173449        0.62624023511162        0.77539120753622
H            7.04899635740536       -4.15124541602970        1.71493820391225
H            5.46687907123976       -3.33854770046476        1.78340310806991
H            6.05984550794159       -4.00321159451701        0.23579738960483
H            4.53736835670619       -2.25908370753105       -0.07734546324010
H           -0.43985516036794       -1.70969418831551       -1.72988533149619
H           -1.23963814424471       -1.32982238475664       -0.19555831030289
H            0.27101325571951       -2.28103033553624       -0.19695457969584
H           -4.68100071773031        2.95993452080197       -0.19922913479571
H           -3.87214558815594        2.95357314276973        2.72562995908429
H           -4.97733566947909        1.79615312062645        1.97696476980441
H           -5.42179140584851        3.50211341285143        2.09058535977870
H           -2.66604115931271        4.67897389160748        1.28341968617202
H           -3.05701327604378        4.79812071910177       -0.43863414679142
H           -4.27190608122570        5.20299590006213        0.77139621633079
H           -0.74606795970693        2.82003612406793        2.83533729327760
