72
 energy: 42.463091304839 xtb: 6.6.1 (8d0f1dd)
N           -1.78237714837977        2.91312912259116        2.42229588351414
C           -1.76496634712402        2.16220978820028        1.41217111310210
C           -2.86197745102422        2.06615111139762        0.37909455512118
C           -3.46310221998843        0.67089372314708        0.43325322983304
C           -4.35735346013916        0.24552469406157       -0.55286525709728
C           -4.91960962526211       -1.01972653366865       -0.53089830849887
O           -5.78886303409668       -1.51484994967337       -1.45989230324728
C           -6.23287824368957       -0.65713222714841       -2.47756338961507
C           -4.58481058447387       -1.91050321315272        0.51396842113869
O           -5.17299419651359       -3.14166514871042        0.44792034697028
C           -4.93896735211617       -4.04602761693641        1.49645707490444
C           -3.71257387681600       -1.48318521638167        1.49930033919591
C           -3.15929864295757       -0.20786041038212        1.45603509488883
C           -2.20536345439178        2.29066264596730       -1.00791990876383
C           -1.40129078081991        1.10472842004005       -1.57605285210742
C           -0.17103003572113        0.76359265335752       -0.78920823896971
N            0.30050266475281       -0.46944886587044       -0.51295674512003
C            1.51224293444482       -0.69542937036378        0.00635934299994
C            3.55957395542654       -0.12924729048023       -1.56193924522305
C            4.85818145999531       -0.13608537828729       -1.05829859949817
C            5.73027162663710        0.91582742102613       -1.33656083887660
C            7.01354596198446        0.89825107230383       -0.85936152564216
C            7.47267385956664       -0.15324306081730       -0.08228612204930
O            8.71212064670843       -0.23953017132388        0.47680835201516
C            9.60857141759537        0.81707255321475        0.26217043860286
C            6.62378082596093       -1.25436902807941        0.16928962713632
O            7.18911096238177       -2.25767939867765        0.90769639525279
C            6.40851660617530       -3.38709796464256        1.18477558240642
C            5.34914729128113       -1.24336159957388       -0.32538999705961
C           -0.56183592383512       -1.61178802066921       -0.74388279538057
C           -3.99889649689267        3.09953306276492        0.59352576815541
C           -4.71023340712956        2.85634969517907        1.92273137731471
C           -3.50196663417915        4.54188200931802        0.53570784036572
H           -4.61200229707279        0.92173908596691       -1.35252942382438
H           -6.73289344989875        0.22843376029203       -2.07163617109891
H           -6.94546204755213       -1.23946125248577       -3.06001455354553
H           -5.40900967678868       -0.33873586331602       -3.12522166372877
H           -5.27568826085371       -3.64458865018676        2.45870319372125
H           -5.52009329677186       -4.93551439977348        1.25408153576979
H           -3.87987651561911       -4.31333890119253        1.57276712092461
H           -3.45717307236583       -2.13369769339835        2.32157123177850
H           -2.50119370516071        0.09966862489883        2.25298212137646
H           -2.99433005335027        2.53666233479523       -1.72607766041991
H           -1.54867720462091        3.15928404232545       -0.94044337587824
H           -2.04657875060799        0.23301686603170       -1.63859835279269
H           -1.15253111429582        1.39419499758011       -2.61517166358489
H           -0.90010482674478        1.53778952382591        1.10679434007348
H            0.56081880949264        1.55553872804044       -0.68429874303066
H            1.73057864923133       -1.67542457917946        0.38297593010212
H            1.95417211250040        0.18211845323428        0.50577028896606
H            3.26805435868613        0.71085423339941       -2.16189487666410
H            3.17001184457820       -1.08834682211778       -1.86742295699856
H            5.37894066467885        1.72934125564083       -1.94726327456886
H            7.65007310818349        1.73279985130990       -1.08645218530656
H            9.23174107018164        1.75984951148346        0.67360557297615
H            9.83871409391887        0.95185650263787       -0.80179387042036
H           10.51915120607932        0.53991377680881        0.78905636822673
H            7.04732556222960       -4.04069825724815        1.77629579421220
H            5.51155257572711       -3.14146938247288        1.76617710188386
H            6.10653160821767       -3.89683291787442        0.26386586804239
H            4.69793150165674       -2.08427325413811       -0.15699438215686
H           -0.70818062483441       -1.76606204128038       -1.81235311248130
H           -1.54108363931798       -1.43035633109142       -0.27978868864187
H           -0.09008535489152       -2.49661511289429       -0.30495064503872
H           -4.72544816174458        2.96038994573755       -0.21447590632158
H           -4.01391248182581        3.00982888700347        2.73624868933416
H           -5.09832113813142        1.84192268486548        1.97477331979272
H           -5.53833784843656        3.55291226445662        2.04091552106741
H           -2.74741257246944        4.69503143723046        1.29769622559288
H           -3.08362767647733        4.78201287529210       -0.43823137357039
H           -4.33225310420669        5.22170385214072        0.72562652935728
H           -0.92860880267060        2.86839498233699        2.97620995548246
