72
 energy: 42.763937924714 xtb: 6.6.1 (8d0f1dd)
N           -1.80859289524968        2.91809288755966        2.43923833609919
C           -1.78384809532641        2.16433610845258        1.43019490303329
C           -2.87192971536231        2.06650116146353        0.38856459725860
C           -3.47460700331222        0.67202739472852        0.44125973857273
C           -4.36102540758520        0.24511053291112       -0.55137490771139
C           -4.92386868882294       -1.01991847429327       -0.53162117469101
O           -5.78548685556997       -1.51595175273006       -1.46642333032725
C           -6.21956695745734       -0.66100442793878       -2.49094415744975
C           -4.59892676337874       -1.90797079716004        0.51890551464274
O           -5.18713472482336       -3.13926408076515        0.45099460584964
C           -4.96028313045394       -4.04190573359989        1.50264529911527
C           -3.73519297624339       -1.47878569073930        1.51103452627121
C           -3.18049828346451       -0.20404494365510        1.46923778509162
C           -2.20633019825649        2.28999287353557       -0.99456854245926
C           -1.40981343058046        1.09997957140698       -1.56564462338669
C           -0.18395117053079        0.74278087407893       -0.78180206274215
N            0.26138483571638       -0.49100546096190       -0.50545105364492
C            1.46108082412949       -0.74961480826455        0.01801143786644
C            3.61248800610317       -0.09208954799301       -1.59003132222117
C            4.90160451580068       -0.11438040521057       -1.07903641573255
C            5.78364524010384        0.92875822176573       -1.36045388290674
C            7.06338070681294        0.90160377689721       -0.87960864618660
C            7.50996740724538       -0.14906226910196       -0.09329092746356
O            8.74533723563002       -0.24151959778958        0.47151261472269
C            9.65034561406724        0.80823402225859        0.25847544604360
C            6.65127306371129       -1.24251316081687        0.16140081729036
O            7.20677114331332       -2.24677493145045        0.90559733608925
C            6.41571110672272       -3.36860279715375        1.18609727932203
C            5.37865424920377       -1.22259248496557       -0.33553158398970
C           -0.60916834415027       -1.62472426527930       -0.74867800015599
C           -4.00891082530964        3.10121049906917        0.59462876522124
C           -4.72645455914431        2.86219649563870        1.92124275400546
C           -3.51033449876031        4.54298812891376        0.53512099651743
H           -4.60772527292761        0.91954527908551       -1.35519880606263
H           -6.72353787300805        0.22572658187875       -2.09236055775349
H           -6.92658971304082       -1.24469697962614       -3.07894100539236
H           -5.38934271523409       -0.34465002860643       -3.13156813357779
H           -5.30585566493033       -3.63986733182956        2.46159222533620
H           -5.53783206510202       -4.93267778447737        1.25636521621348
H           -3.90146337716278       -4.30745861389189        1.58861433952379
H           -3.48742021701328       -2.12714507064167        2.33747027477854
H           -2.52888365305732        0.10486685613129        2.27106693432537
H           -2.99008009397957        2.54832210811451       -1.71442873478660
H           -1.54134635143807        3.15182821497775       -0.92033404201519
H           -2.06289514337702        0.23377974858898       -1.63723167531891
H           -1.14724889382990        1.39291934844097       -2.59992091724457
H           -0.91994032800321        1.53187911622986        1.14066498775761
H            0.55132354032847        1.52772126935973       -0.65754905622047
H            1.66415953750047       -1.73780124808208        0.37047014178033
H            1.94375525805048        0.10969479289634        0.51037058081828
H            3.31759377122666        0.75180827915875       -2.18285591302532
H            3.20200443016963       -1.04477487531882       -1.88448005674285
H            5.43929050456408        1.73974340136590       -1.97747861620442
H            7.70660282479091        1.72942030065940       -1.11010546154174
H            9.27729882700628        1.75522833624877        0.66387868832151
H            9.88817071867778        0.93714675537007       -0.80464193303859
H           10.55551414893671        0.52637955546328        0.79227229701962
H            7.04740899829263       -4.02393544627228        1.78274417150228
H            5.51838716510145       -3.11338773094685        1.76293303270854
H            6.11359032536708       -3.88104487833051        0.26690045609027
H            4.72075646090794       -2.05806542806832       -0.16649630459584
H           -0.75186444948670       -1.76574149154028       -1.81744581251759
H           -1.58719576415912       -1.44114255298022       -0.28563140765484
H           -0.14549593320668       -2.52066671436487       -0.31947693149157
H           -4.73181204311034        2.96022519219022       -0.21648701849300
H           -4.03400960482548        3.01759786485625        2.73780563691603
H           -5.11519098620757        1.84805737830411        1.97417294900076
H           -5.55471814561914        3.55959951664545        2.03317630022626
H           -2.75908720968878        4.69784021717745        1.30007411078780
H           -3.08760196305328        4.78004309205310       -0.43764093381754
H           -4.34112701705160        5.22383571462109        0.71935723686466
H           -0.95590871668770        2.87342657248861        2.99621404041967
