72
 energy: 37.569699693522 xtb: 6.6.1 (8d0f1dd)
N           -1.91595201277361        2.98133203735993        2.47107358596089
C           -1.87226892993538        2.16235841490385        1.52014939567500
C           -2.92907007851211        2.05902789017055        0.44837447489643
C           -3.54921712488166        0.67272599052774        0.49676684547212
C           -4.38201815387902        0.23901138860736       -0.53822150441354
C           -4.95399941338446       -1.01936812186298       -0.52525368911553
O           -5.75588752178469       -1.52685058527821       -1.50684422697361
C           -6.12200952777634       -0.69339668689953       -2.57734012234815
C           -4.69664254548685       -1.89258759851824        0.55656498914627
O           -5.28061907040044       -3.12023494333186        0.47471790462819
C           -5.10831881342609       -4.01359560187408        1.54568116472255
C           -3.89527955898150       -1.44991967394862        1.59304162805802
C           -3.32953313391039       -0.18039340215715        1.56190312210852
C           -2.19642920138848        2.27870346822826       -0.90341953477266
C           -1.45615658932900        1.06245918442894       -1.49313017722231
C           -0.28270089594808        0.60510133384789       -0.70105924768889
N           -0.00024564144712       -0.65337704600731       -0.39863903070481
C            1.09112799016224       -1.04831459345148        0.24290805751453
C            3.93402340103637        0.09655572077500       -1.80739950979679
C            5.19011593912092       -0.00017937674405       -1.27563753099957
C            6.14110670924862        1.00307171526584       -1.53817227373387
C            7.39473833318836        0.93142927005517       -1.00534640702375
C            7.75962501922620       -0.11904306979589       -0.17093049554387
O            8.96857851289746       -0.25518316645135        0.43235972750594
C            9.93650051982758        0.74137405312403        0.23713480068277
C            6.83432889418562       -1.16158543154471        0.09441175222168
O            7.31333942057499       -2.15929091424849        0.89701187241937
C            6.46507681124489       -3.23861548420936        1.19356506948901
C            5.58345480823877       -1.09536772211124       -0.44841283806709
C           -0.92806648823416       -1.70623888516349       -0.76676452988150
C           -4.06604278674839        3.10942316603692        0.60582320859218
C           -4.83269723828732        2.90420227621373        1.91050955888025
C           -3.56217049355605        4.54961667397198        0.52734528994058
H           -4.57860472902062        0.90261075454308       -1.36401822048199
H           -6.65778999104394        0.19866290819570       -2.23519363988458
H           -6.78630902028649       -1.29229469909116       -3.19869367406973
H           -5.25202142008898       -0.39053834057213       -3.17049704503324
H           -5.51821174583083       -3.60915552300524        2.47670015175903
H           -5.66248938140447       -4.90910075427640        1.26811802184015
H           -4.05466502229413       -4.27016260795654        1.69918928048945
H           -3.70201613521640       -2.08105368658343        2.44594092118060
H           -2.72544700552153        0.13588577570622        2.39803799604321
H           -2.93233435809137        2.60100841303351       -1.64173801051719
H           -1.48660530469337        3.09876907580091       -0.78034657416547
H           -2.17097064205955        0.25396913362650       -1.64378850350714
H           -1.11386622491046        1.38122470491591       -2.48895014523153
H           -1.05347616992156        1.44665451459469        1.35615718219033
H            0.47072741920356        1.34137467924431       -0.46285500666592
H            1.19889590959523       -2.06989595008114        0.54058211640326
H            1.72417593209993       -0.27400914476260        0.66615491314407
H            3.64503910416419        0.90882512805755       -2.44631711530094
H            3.27351824061596       -0.73886351934655       -1.72302682860124
H            5.85329147235988        1.81343013177522       -2.18340288257908
H            8.09076117357617        1.71385800867264       -1.24579918329874
H            9.59359903237617        1.71795897172497        0.59889456995259
H           10.22999140286542        0.82527690954364       -0.81558549850437
H           10.79873073354943        0.42203996785236        0.82134237905646
H            7.05073798933208       -3.90244830159682        1.82842592534374
H            5.56739290583981       -2.92315154215823        1.73799794176154
H            6.16500103122493       -3.77169920334087        0.28591838806669
H            4.87074077346446       -1.87992407004457       -0.25903909959723
H           -1.03638005653123       -1.75996452696286       -1.84962282612603
H           -1.90418714633254       -1.51566319214580       -0.31291901867704
H           -0.53470927457460       -2.65645305443030       -0.40441080537167
H           -4.76396823542637        2.94797815302384       -0.22511439408109
H           -4.17411649912140        3.07434804686723        2.75529877178056
H           -5.23198786279607        1.89461437751332        1.97234889799746
H           -5.66015565131512        3.60859801879800        1.96612926999130
H           -2.83464810625064        4.72964481835394        1.31204166610355
H           -3.11082330700657        4.76586524426152       -0.43775427562972
H           -4.39861834066796        5.23231771980332        0.66657644137410
H           -1.11948038939420        2.94739363150230        3.10825475926187
