72
 energy: 36.859346807418 xtb: 6.6.1 (8d0f1dd)
N           -1.92652314214124        2.98522476329571        2.46940257406346
C           -1.88281597546608        2.15427230677557        1.53066166220080
C           -2.93477281589835        2.05812912572105        0.45616475745528
C           -3.55914211079474        0.67466402080681        0.50405113183928
C           -4.38433543763550        0.23797037089977       -0.53550205278318
C           -4.95509698148785       -1.02115779684269       -0.52602546488107
O           -5.75227851305088       -1.52876154193107       -1.51036817611585
C           -6.10753507257946       -0.69932309005610       -2.58794752918809
C           -4.70867978166161       -1.88954350826900        0.56153454077312
O           -5.29138222572523       -3.12037817669227        0.47682327452403
C           -5.12916284712923       -4.00927159886313        1.55207819273964
C           -3.91754519253726       -1.44450911901112        1.60498970411946
C           -3.35037596387078       -0.17602880851407        1.57424156499455
C           -2.19342265176520        2.27718232043828       -0.89238412961707
C           -1.46353129129637        1.05959737928279       -1.48851039017627
C           -0.30332333514669        0.58768760428256       -0.68690275628766
N           -0.04005245851533       -0.67363749970590       -0.37523414269963
C            1.03571116784379       -1.07849979212218        0.28601762655511
C            3.97736812136863        0.10623470558425       -1.85208117468831
C            5.23024390286221        0.00905927696728       -1.30722142004709
C            6.18955425564942        1.01168133660952       -1.56090043596614
C            7.44025825522401        0.93753363746538       -1.01850359151856
C            7.79339874775478       -0.11373426318869       -0.17826283363279
O            8.99846559264665       -0.25864829256886        0.43291143946978
C            9.97614669227034        0.72882750061953        0.24033125191742
C            6.85775479731692       -1.14893379104161        0.08617253845919
O            7.32677743401863       -2.14463814319625        0.89664061249662
C            6.47281446279018       -3.21992088929154        1.19355395665300
C            5.61205492153827       -1.08513080927080       -0.47167772026795
C           -0.97428544244142       -1.71367659814156       -0.75999039391089
C           -4.07125152524727        3.10976761233636        0.60686653795550
C           -4.84683973726307        2.91099387202153        1.90811556365199
C           -3.56847257086928        4.55063593387549        0.52499154198272
H           -4.57526516069267        0.90066502264030       -1.36326424688575
H           -6.64682538548398        0.19404146158526       -2.25444324782178
H           -6.76591927392393       -1.30159956092284       -3.21296607071662
H           -5.23269178046278       -0.39734336824032       -3.17547045128966
H           -5.54768233480759       -3.60337325616791        2.47944097089968
H           -5.68019563857189       -4.90571068388657        1.27097113267417
H           -4.07676335064396       -4.26606405025166        1.71599914105243
H           -3.73311435946366       -2.07386927214501        2.46154018658380
H           -2.75381599145791        0.14175303566634        2.41512910307604
H           -2.92252943167651        2.61126596076403       -1.63215089070926
H           -1.47675742106475        3.09150994269035       -0.76164851616839
H           -2.18045557614119        0.25904291436173       -1.65391189693141
H           -1.10472681025185        1.38060174180385       -2.47592093321905
H           -1.05954190148529        1.44585707904318        1.37204347875473
H            0.45967802109281        1.31073195398312       -0.44283779394362
H            1.13396734636357       -2.10120129033808        0.58868468835736
H            1.70806967152992       -0.31611906324322        0.64387889477920
H            3.69585089299197        0.92857870137970       -2.48100444367541
H            3.28704717596401       -0.70026348886274       -1.72961470295847
H            5.91154637990910        1.82286717985127       -2.21157064348013
H            8.14488378617889        1.71394424584285       -1.25915462661088
H            9.63847185676365        1.70962730950642        0.59592201042646
H           10.27873025689671        0.80839546618939       -0.81042784890048
H           10.83111515005715        0.40414789488707        0.83243174916577
H            7.05318167189804       -3.88444402500771        1.83230859522361
H            5.57494795390633       -2.89690261189642        1.73364091282529
H            6.17364759270533       -3.75608615662124        0.28714387793923
H            4.88579806955968       -1.85781926209361       -0.28173462972536
H           -1.07379509107603       -1.75730203484004       -1.84401908924126
H           -1.95238668663904       -1.52596260303327       -0.31357780360957
H           -0.59221699625882       -2.66782205891435       -0.40217270632552
H           -4.76515531881967        2.94416547573447       -0.22740922740240
H           -4.19305001029750        3.08462968019521        2.75582969069515
H           -5.24861764877922        1.90222122391144        1.97186675300046
H           -5.67327319675712        3.61711092399815        1.95455866283310
H           -2.84540550771940        4.73460005092282        1.31252004910556
H           -3.11016949654595        4.76285428779896       -0.43786629525221
H           -4.40603808420632        5.23302671275994        0.65671725159318
H           -1.13763538365204        2.95709439876592        3.11263025902752
