72
 energy: 39.409653040942 xtb: 6.6.1 (8d0f1dd)
N           -1.87188257250243        2.95783030829559        2.45252430544168
C           -1.85442221380130        2.14716246258248        1.49576138433714
C           -2.91476010787307        2.05767820768621        0.42976614037247
C           -3.52826740037228        0.66994196721565        0.47869090712773
C           -4.37572961758987        0.23986558673685       -0.54484021233599
C           -4.94686652123167       -1.01913391145838       -0.52780199139907
O           -5.76275937551277       -1.52127044165027       -1.49519206157094
C           -6.14962990073216       -0.68278676408675       -2.55252203193152
C           -4.66824243208443       -1.89694823472664        0.54508865036534
O           -5.25380766659013       -3.12310058769407        0.46926941827546
C           -5.06587352107074       -4.02133964233028        1.53356073331471
C           -3.84900154715272       -1.45914009151206        1.56868576996403
C           -3.28665064464448       -0.18846374967000        1.53429688120490
C           -2.19720940484484        2.28169651481613       -0.92904262730593
C           -1.43799451528392        1.07115381938561       -1.51155156185466
C           -0.24255823541941        0.63883902358899       -0.72864387934300
N            0.08146019816109       -0.61190054319344       -0.43658205329152
C            1.20226074735791       -0.97560806659361        0.17179742461740
C            3.84750063341341        0.05742281377199       -1.73104220491945
C            5.10874736219846       -0.02588284322421       -1.21157857493906
C            6.04137761885402        0.98335612328567       -1.48718911182751
C            7.30226151386461        0.91808319522552       -0.97475430438323
C            7.68923157925245       -0.12826630548847       -0.14808388092512
O            8.90589898151909       -0.25132264738026        0.43888226001051
C            9.85560440156888        0.76141086811578        0.24319274185649
C            6.78381007871287       -1.18669756290877        0.11499487219052
O            7.28402364577524       -2.18594688689461        0.89578437287175
C            6.45160500361923       -3.27654651089584        1.19186850189390
C            5.52492698521170       -1.12763642226878       -0.40853469438069
C           -0.83509561106656       -1.68606548199149       -0.77129050705445
C           -4.04861472033479        3.10740240655759        0.60281128198576
C           -4.80171225766958        2.89156523438847        1.91319999283687
C           -3.54677516400185        4.54780573859723        0.53016463962991
H           -4.58705146164110        0.90724541962860       -1.36396919820635
H           -6.67725908887275        0.20715719957637       -2.19417460928874
H           -6.82587585821903       -1.27757580245349       -3.16387597737874
H           -5.29075783639124       -0.37780333374769       -3.15927529744291
H           -5.45776631717392       -3.61915619395208        2.47280784691144
H           -5.62686366164883       -4.91513876443460        1.26453470711121
H           -4.01102808294888       -4.28168264058940        1.66662236283084
H           -3.64076222219730       -2.09452598458957        2.41422227084200
H           -2.66895901045918        0.12635263226159        2.36085555521822
H           -2.94790574466071        2.58958563108858       -1.66132558252321
H           -1.50232761354759        3.11442290651456       -0.81864308430269
H           -2.13935165007889        0.24565559763759       -1.63779263916115
H           -1.12196039759990        1.38621261345135       -2.52012200474279
H           -1.01592058049921        1.46478141231924        1.28631103331366
H            0.49833908857720        1.39468708096388       -0.51741001920938
H            1.33380251707448       -2.00187977976513        0.44746469223839
H            1.79285074622347       -0.18138304729535        0.65553963825491
H            3.55510722599819        0.88268852270374       -2.35228525806761
H            3.25211768161276       -0.83108280295820       -1.75410576877977
H            5.73691804376836        1.79206258950735       -2.12432769277028
H            7.98267521519253        1.71080174883424       -1.21689748596356
H            9.50316300950123        1.72838959182959        0.61892707558887
H           10.13365538597592        0.85892524567423       -0.81165326458041
H           10.72910676510926        0.44999675323239        0.81389627984687
H            7.04875574688979       -3.93781234171381        1.81704602268116
H            5.55482090571417       -2.97728424813969        1.74484609910237
H            6.15033932553527       -3.80476606203546        0.28241118344784
H            4.83135997525620       -1.93112262606880       -0.22739441809167
H           -0.95486133468955       -1.76035275463736       -1.85177759344439
H           -1.81035048516061       -1.49702323292151       -0.30941992572079
H           -0.42036036854573       -2.62103321610779       -0.39499831922754
H           -4.75363055730252        2.95248247232039       -0.22190278390911
H           -4.13368885876301        3.05671395617295        2.75089940240656
H           -5.19860281825639        1.88096856201849        1.97211294452468
H           -5.62950064510916        3.59399312320669        1.98472093761582
H           -2.81226255987207        4.72196075093692        1.30914711802688
H           -3.10542978640218        4.77194570734957       -0.43681821007148
H           -4.38223859969538        5.22909612082149        0.68125775922155
H           -1.06603784620292        2.92378455580737        3.07789706481417
