72
 energy: 31.837066899438 xtb: 6.6.1 (8d0f1dd)
N           -1.70702336012507        2.89856212778138        2.36809301254147
C           -1.70909868880855        2.16021955406967        1.34996889607829
C           -2.83237778531065        2.06572085643653        0.34762880186109
C           -3.42766125804313        0.66764145468368        0.40790724209265
C           -4.34465698161421        0.24682487827925       -0.55835277702729
C           -4.90408284718742       -1.01899271394091       -0.52933171939476
O           -5.79838381645823       -1.50928331732958       -1.43683120101801
C           -6.27153514175697       -0.64564679434180       -2.43625582359313
C           -4.54118995102928       -1.91750478515468        0.49837660317110
O           -5.13032388808216       -3.14844523013932        0.43826798337080
C           -4.87466060798474       -4.05812493963189        1.47683848957125
C           -3.64430578465992       -1.49562887711412        1.46287514369416
C           -3.09552688072305       -0.21857295999811        1.41506069997091
C           -2.20247437419667        2.29334430294959       -1.05079064999166
C           -1.36830001808371        1.12132185285687       -1.60360487772959
C           -0.13269429353864        0.84652675552849       -0.79136950696820
N            0.43267183015574       -0.40597326670932       -0.53948159624882
C            1.75187950728469       -0.53229409496257       -0.10600518787015
C            3.32190957364166       -0.25456712294046       -1.42063373637038
C            4.71541076008754       -0.20172916091579       -0.98039102241607
C            5.55896428474804        0.86261747410523       -1.26874785217009
C            6.86103415047981        0.88023653282075       -0.80367443423684
C            7.36057178455007       -0.16587579965429       -0.05123270731642
O            8.61018198744726       -0.23250036238443        0.49184027552497
C            9.48401694854377        0.84332245770695        0.27590700257488
C            6.54249365760289       -1.28792308866195        0.19283987020747
O            7.13558013931962       -2.28819734352363        0.91236419823812
C            6.38617574939368       -3.44077564154818        1.17813175704253
C            5.25438763373499       -1.29745433866587       -0.28520908500542
C           -0.42026189750742       -1.55894279544629       -0.71721640208727
C           -3.96879914978102        3.09429194019336        0.58986719704491
C           -4.66060908669450        2.83747849084646        1.92687807745274
C           -3.47719904763450        4.53849587979077        0.53862945558911
H           -4.62286289438598        0.92758430981371       -1.34604204137432
H           -6.75983089634324        0.23662280528766       -2.00974291813540
H           -7.00041637533850       -1.22466078338764       -3.00146064568643
H           -5.46766930563088       -0.32160715517902       -3.10571029291884
H           -5.18465681286234       -3.65892019836936        2.44888792011742
H           -5.46654792279559       -4.94360069321057        1.24613687793367
H           -3.81534973082346       -4.33124998300105        1.52409663423513
H           -3.36615098652970       -2.15253263177225        2.27224241129456
H           -2.41759026947798        0.08451097274054        2.19654891780442
H           -3.00621349961568        2.50274189958450       -1.76305165256645
H           -1.57070315613864        3.18131146113602       -1.00272321536438
H           -1.99152159213714        0.23205078696163       -1.63961351596238
H           -1.13989963105881        1.39477779048718       -2.65754152871965
H           -0.84294267848736        1.55447581752634        0.99849440471961
H            0.60098491126667        1.64121266296380       -0.77144559997819
H            1.90097439213831       -1.46074024685081        0.45189891937378
H            2.02215268799187        0.37961161635185        0.45830309106606
H            3.11270870879222        0.56588920040581       -2.10008885289936
H            3.10040505124337       -1.22870250496867       -1.85727300393052
H            5.19794705082107        1.69006709677572       -1.85839742360104
H            7.47619638606316        1.73785607997549       -1.01872934292611
H            9.09739593536477        1.77323084167956        0.70622919495577
H            9.69274089918048        0.99557334648167       -0.78987289292135
H           10.40901539230224        0.57758996779592        0.78341731525305
H            7.04697395526608       -4.08875013907867        1.75123876535446
H            5.49117609403280       -3.22481393003716        1.77369746604352
H            6.08606597996268       -3.94279436800500        0.25222924371856
H            4.62962389794997       -2.15984405185236       -0.12143939550807
H           -0.58990858379926       -1.75134626417045       -1.77805296837940
H           -1.40285225804465       -1.38892959653582       -0.24827612084800
H            0.06831541006241       -2.41585582886890       -0.25445386017309
H           -4.70636313057486        2.96053880633606       -0.20842565674221
H           -3.95271292892627        2.98545473315844        2.73118255890447
H           -5.04633411740940        1.82202686004706        1.97577378235346
H           -5.48849941582731        3.53098063929124        2.06345074163815
H           -2.71281633041752        4.68663616315009        1.29175476258898
H           -3.07231241763539        4.78885018985309       -0.43848116098015
H           -4.30646162070659        5.21417195887812        0.74595579315952
H           -0.85085816865647        2.85051823263697        2.91550794527526
