72
 energy: -0.325543240174 xtb: 6.6.1 (8d0f1dd)
N           -1.58858032136484        2.85441628817768        2.28917409726412
C           -1.62246931574379        2.15010149685895        1.24832900889085
C           -2.78537104072796        2.06270507907102        0.29506397914274
C           -3.37021198438625        0.65976328154557        0.36576432687672
C           -4.32403039604388        0.24719788041932       -0.56684584846854
C           -4.87734046897507       -1.01969693822060       -0.52802472464628
O           -5.81187879166983       -1.50045615568541       -1.39877557610832
C           -6.33447202238420       -0.62776081528858       -2.36532533957085
C           -4.46957307575193       -1.92933997862607        0.47135737289892
O           -5.06068036762442       -3.15946160708593        0.42278602086104
C           -4.76937991499512       -4.07884801592744        1.44260927496962
C           -3.53258283526922       -1.51776545417690        1.40011114688895
C           -2.99080919481366       -0.23816058799696        1.34561756234976
C           -2.19902508089970        2.29606466169360       -1.12226852295135
C           -1.31066731341825        1.15408028138290       -1.64776006739586
C           -0.06144208059977        0.99496954204144       -0.83127548729758
N            0.56081902576556       -0.23559668551781       -0.56515793677548
C            1.94417458274834       -0.28729980983956       -0.16803826746514
C            3.08953266007389       -0.40799055298920       -1.31960198913245
C            4.52774077859228       -0.31669875265533       -0.89940413277676
C            5.31185751798295        0.79344574542696       -1.15626657651625
C            6.62195391115943        0.86120436176972       -0.70230823287360
C            7.17847459068843       -0.18774266464535        0.00446288112851
O            8.44085016280468       -0.22211137505378        0.51454874976277
C            9.27567287394894        0.88624102946891        0.29869067175123
C            6.40582078833487       -1.34622131230843        0.23505833030265
O            7.04394208577595       -2.33655217943033        0.92372022510376
C            6.34991631584327       -3.52970948272939        1.16616659354106
C            5.10760639044196       -1.39792716998649       -0.22775469019034
C           -0.22342658405738       -1.43700701541484       -0.67028910344670
C           -3.91774824470978        3.08520309552003        0.58483096342509
C           -4.57758072048894        2.80695673200076        1.93384326612800
C           -3.43432474479931        4.53283002576125        0.54322814600011
H           -4.64102732496331        0.93683127309242       -1.33152010988515
H           -6.80384890354090        0.24834880257433       -1.90600541042696
H           -7.08881832446479       -1.20369197081945       -2.89933604462203
H           -5.56644501701789       -0.29464120500417       -3.07151531359870
H           -5.03425345760908       -3.68499936699979        2.42997901522703
H           -5.37921383007523       -4.95644806447879        1.23012003968669
H           -3.71179122988180       -4.36331689547347        1.44101784852016
H           -3.21720322493454       -2.18491468568509        2.18669969644097
H           -2.28055039260328        0.05692285135053        2.10091713123303
H           -3.02218229495356        2.44366530220512       -1.82551794892844
H           -1.61093960791376        3.21429846638660       -1.10582547791956
H           -1.89309053887744        0.23447994602069       -1.64205285000416
H           -1.07659908840146        1.39014774128147       -2.70845724586518
H           -0.75580493487701        1.59382099047826        0.81562922805026
H            0.64984276124057        1.80441743432934       -0.89773507779588
H            2.03910457798121       -1.07394877830806        0.59427583760572
H            2.15057971641324        0.69357665619060        0.30169169564411
H            2.92644869780819        0.32162342071733       -2.11860852235212
H            2.90450893635386       -1.41615385244584       -1.70815127726030
H            4.90684117020126        1.62728848271324       -1.70851621420922
H            7.19939756074413        1.75088223076979       -0.89740816908102
H            8.87235263772111        1.79306329628101        0.76070916685858
H            9.44612942658098        1.06724097265278       -0.76875195701887
H           10.22282938163757        0.63805076704052        0.77320549924090
H            7.04915455990557       -4.16615090228940        1.70557694977147
H            5.46082747780584       -3.36657635948887        1.78561105868199
H            6.05277236731170       -4.01824693805091        0.23175808495691
H            4.51428815559307       -2.28340518568151       -0.06668081655498
H           -0.40033463192314       -1.69558071615113       -1.71880182771204
H           -1.20213907011230       -1.31788353303953       -0.18375906252064
H            0.32111131376983       -2.24488250343530       -0.18471943307420
H           -4.67441480136063        2.95977152132618       -0.19672060753752
H           -3.85223910627743        2.94566558106770        2.72491136882735
H           -4.96014179766008        1.79006571320351        1.97720050564485
H           -5.40481751307867        3.49524314058369        2.09680630111754
H           -2.65376104032651        4.67816188255606        1.28121747373077
H           -3.05275447758007        4.80059358512320       -0.43878980606868
H           -4.26262828387369        5.20011242399579        0.77734039773023
H           -0.72020139852543        2.81071002860700        2.81669086847360
