72
 energy: -4.855508284694 xtb: 6.6.1 (8d0f1dd)
N           -1.54800927235489        2.82233118781195        2.26755788342985
C           -1.59166141086183        2.14909795200061        1.20748828692802
C           -2.76828207046320        2.06132163894935        0.27396867855675
C           -3.34734978812213        0.65540214538483        0.34889096768294
C           -4.31529393578242        0.24679449308967       -0.57080944473900
C           -4.86596961759800       -1.02041591069181       -0.52840679251722
O           -5.81546301912777       -1.49638523831777       -1.38412669812166
C           -6.35929132457716       -0.62079991789488       -2.33678750685769
C           -4.44085384357437       -1.93437973905430        0.46006857561256
O           -5.03277873443331       -3.16302963447027        0.41705755116072
C           -4.72712598009395       -4.08754140389920        1.42825243253618
C           -3.48816174888148       -1.52746101353571        1.37423378538204
C           -2.94892679890306       -0.24685961794745        1.31746672798401
C           -2.19726593877125        2.29837200476453       -1.14937879306547
C           -1.28898885475749        1.16734509962874       -1.66128092423756
C           -0.03528579457914        1.05405684599810       -0.85198349939527
N            0.59068350874684       -0.15847351971139       -0.56320281923996
C            1.96836883988409       -0.18527939297082       -0.16417263236673
C            3.02894290936503       -0.46337073480518       -1.30684378275092
C            4.46087757527190       -0.36517813424172       -0.87752512443338
C            5.21813904522922        0.76753793854756       -1.11173717584462
C            6.52834762396377        0.85385763508220       -0.66194034408380
C            7.10618125549168       -0.19641932039895        0.02611527203297
O            8.37465707064034       -0.21806199019949        0.52138057947598
C            9.19275309019802        0.90318204343452        0.30814658578086
C            6.35142722791360       -1.36836072517908        0.25300147528981
O            7.00727368034703       -2.35549191573764        0.92793781471272
C            6.33591271243286       -3.56428950507459        1.16077986944738
C            5.05090454566351       -1.43750206441488       -0.20364096518129
C           -0.15534690849115       -1.38324506821926       -0.64800840907351
C           -3.89768972212313        3.08159140723968        0.58356303780764
C           -4.54425787785913        2.79399262730945        1.93708359388872
C           -3.41772256907671        4.53077711753699        0.54550136934540
H           -4.64765677271989        0.94011422234928       -1.32550776369090
H           -6.82181552700914        0.25234484752389       -1.86483269012642
H           -7.12316787955229       -1.19673768777658       -2.85701630087953
H           -5.60696714744274       -0.28456637310061       -3.05837985592236
H           -4.97378790180138       -3.69695716172078        2.42149262737049
H           -5.34423255727680       -4.96124119995707        1.22201982268957
H           -3.67114663115062       -4.37736910495673        1.40650525461672
H           -3.15821517662516       -2.19830154061162        2.15155418876742
H           -2.22618802285680        0.04417220857445        2.06278573714059
H           -3.02489388843673        2.42089100436981       -1.85061561032411
H           -1.62667073819358        3.22785885004213       -1.14528524830770
H           -1.85400269297274        0.23640478185617       -1.64156476167374
H           -1.04483076006802        1.38758011529298       -2.71645366490157
H           -0.72445094921122        1.61710936872745        0.74327127466863
H            0.65870481037291        1.87620095392596       -0.93357309211728
H            2.06959542355311       -0.91054721681660        0.65453181804512
H            2.20509573742749        0.81594867785011        0.22508430464121
H            2.86702382294123        0.21838133730828       -2.14581054714079
H            2.81719482409085       -1.48468764864761       -1.63299698126790
H            4.79311802921100        1.60065519863167       -1.65042167403269
H            7.09036844843967        1.75430159235746       -0.85248776438163
H            8.78316682086214        1.80021374584808        0.78390107034268
H            9.34787489402761        1.09697535269500       -0.75913224530044
H           10.14792481862613        0.66027443103512        0.76962958960554
H            7.05098440907697       -4.19551037207205        1.68556528793148
H            5.45047786806673       -3.42329491049446        1.79047631420483
H            6.03939856130608       -4.04828175375822        0.22365669754358
H            4.46859739835554       -2.33082267622643       -0.04315977133367
H           -0.33050024759387       -1.66709318638659       -1.69081116815278
H           -1.12941873770667       -1.28741712357183       -0.15206992184810
H            0.41544728642991       -2.16860181094377       -0.15648106201186
H           -4.66183134124067        2.95853435348766       -0.19138007937081
H           -3.81313498150474        2.92852409335229        2.72453585908983
H           -4.92554611343866        1.77652869494580        1.97754533369218
H           -5.37139898152535        3.47976665207902        2.10877085266831
H           -2.63125671135561        4.67886865037204        1.27763495112317
H           -3.04662321252690        4.80655317622468       -0.43839705377988
H           -4.24647746908267        5.19310489429461        0.78977180368664
H           -0.66972401089873        2.79319664194709        2.78044863510476
