72
 energy: 39.434711469562 xtb: 6.6.1 (8d0f1dd)
N           -1.73231704376977        2.90280509903138        2.38657697479297
C           -1.72730326552997        2.16152376436900        1.37043235021782
C           -2.84236287282741        2.06598208193317        0.35836079691277
C           -3.43948130071567        0.66884420228638        0.41660248405923
C           -4.34881427121769        0.24654172635466       -0.55646813863514
C           -4.90943855130615       -1.01897972956132       -0.52948873765215
O           -5.79507882051129       -1.51092503323988       -1.44431364216762
C           -6.25857334974017       -0.64933740316317       -2.45010609968672
C           -4.55559441662233       -1.91519547510798        0.50375833621690
O           -5.14421059331893       -3.14606272127692        0.44142709612688
C           -4.89591284857401       -4.05405663029553        1.48341646349999
C           -3.66675188596594       -1.49151412667895        1.47521116912227
C           -3.11658265194204       -0.21495456304403        1.42893999373695
C           -2.20323819774391        2.29219549881872       -1.03591371542701
C           -1.38011051108750        1.11424436157508       -1.59401054243561
C           -0.14342773109643        0.81061778680365       -0.79379200619594
N            0.38778456712405       -0.43234633763668       -0.52637483618228
C            1.65670957411104       -0.59144929726818       -0.05487304087229
C            3.41869311008844       -0.21364005240955       -1.48161119965893
C            4.76606136705532       -0.18099913718037       -1.01185764944118
C            5.61867680373398        0.88198218523193       -1.29128992235040
C            6.91314222682910        0.88687118181583       -0.82159790472515
C            7.39851257546221       -0.16188805060559       -0.06138365773711
O            8.64531203913670       -0.23513578605202        0.48732186538380
C            9.52546812007641        0.83478743582346        0.27109002776592
C            6.56994720144703       -1.27682222488388        0.18516691939913
O            7.15405433143077       -2.27863444266022        0.91142944582651
C            6.39388023042266       -3.42303430504513        1.18092678758496
C            5.28750012945928       -1.27999011101735       -0.29922588634107
C           -0.46808040703174       -1.58123946137522       -0.72641134118638
C           -3.97906121206034        3.09612893534521        0.59102366783512
C           -4.67742716337281        2.84367729234724        1.92541339744004
C           -3.48562094126087        4.53966395327500        0.53751397166015
H           -4.61923904450304        0.92568759130815       -1.34828766645250
H           -6.75081231837526        0.23404142092576       -2.03045470169278
H           -6.98205787611665       -1.22938359475436       -3.02116548564481
H           -5.44794280628722       -0.32721500312124       -3.11234114797998
H           -5.21491117929012       -3.65404678435579        2.45221381414810
H           -5.48428570027265       -4.94080890412894        1.24873143636126
H           -3.83659911090619       -4.32525950893155        1.54037592052115
H           -3.39609122418550       -2.14628792185840        2.28890590417236
H           -2.44524910667577        0.08963901434779        2.21564838986590
H           -3.00254520142877        2.51326664936571       -1.75019013754836
H           -1.56376601245968        3.17436395899650       -0.98204683020996
H           -2.01146143496568        0.23184555667203       -1.63918934728868
H           -1.14757158369213        1.39468322143898       -2.64262376378090
H           -0.86172625111274        1.54918108598653        1.03592108280068
H            0.58666829314156        1.60936781642651       -0.74014808715134
H            1.84542180091076       -1.53801145355096        0.43772452086397
H            1.99947564164758        0.31348537256773        0.47381263694987
H            3.16776997905214        0.61633534369408       -2.12185842613754
H            3.12819524492499       -1.18690633431905       -1.86642346164666
H            5.25978771449617        1.70339417336484       -1.88909869264017
H            7.53573335620892        1.73637081252537       -1.04114508021703
H            9.14141341979880        1.76905477644562        0.69471269483838
H            9.74087776208767        0.98116115910279       -0.79434750086127
H           10.44606835555277        0.56618630670124        0.78492962421650
H            7.04707994773051       -4.07303350897543        1.76049305346769
H            5.49796754184494       -3.19691512072423        1.77162228805364
H            6.09304681248719       -3.92797651622877        0.25683479573943
H            4.65301287589775       -2.13485989128617       -0.13441582466429
H           -0.62900920480548       -1.75597081956689       -1.79021669620826
H           -1.44946629223346       -1.40592513053434       -0.26026848823288
H            0.01551659047489       -2.44600384809559       -0.27202896687017
H           -4.71281154653270        2.96043474169557       -0.21060050890862
H           -3.97350082674735        2.99362120538484        2.73285126304584
H           -5.06386451200607        1.82853589437513        1.97533575776891
H           -5.50549309998265        3.53813216349210        2.05573561845134
H           -2.72462787308238        4.68946745082273        1.29369353665180
H           -3.07620409270050        4.78660324602426       -0.43855675353778
H           -4.31524882623204        5.21673380802594        0.73899440788748
H           -0.87689802703046        2.85631776110782        2.93590707810051
