72
 energy: 22.517201674415 xtb: 6.6.1 (8d0f1dd)
N           -1.68159787315326        2.89394492984722        2.35012917346979
C           -1.69079110913934        2.15811034925728        1.33003171312162
C           -2.82202689594971        2.06530101717272        0.33698684985541
C           -3.41552482620493        0.66635804844000        0.39911223208108
C           -4.34010247812727        0.24708779754578       -0.56031015134265
C           -4.89846680132258       -1.01894810861446       -0.52917568179912
O           -5.80140051962098       -1.50752038151471       -1.42938691906402
C           -6.28422527433165       -0.64186501591341       -2.42226466572888
C           -4.52663775993120       -1.91968478029148        0.49285885703403
O           -5.11642091617318       -3.15079600307312        0.43499682063155
C           -4.85350249584216       -4.06217210618501        1.46997310139928
C           -3.62168827547634       -1.49980275993634        1.45034198492804
C           -3.07422130747160       -0.22230612195407        1.40101065966455
C           -2.20123149656956        2.29407449195048       -1.06559071758090
C           -1.35577806146537        1.12826715340317       -1.61313671676107
C           -0.12111878768491        0.88034007739697       -0.79041727914256
N            0.47142191877197       -0.37573329950467       -0.55135269245850
C            1.82552506940792       -0.47953285079506       -0.14133314161932
C            3.24732625021500       -0.29086348161762       -1.37959324069080
C            4.66994594845860       -0.22320551410463       -0.95542690452971
C            5.50327767242803        0.84644337477186       -1.24623191158867
C            6.80961341468695        0.87558337547949       -0.78427196928154
C            7.32223372451336       -0.16966063012244       -0.04002944341041
O            8.57395279337300       -0.22967864066778        0.49681490128023
C            9.44133916628988        0.85220026899643        0.28078499394378
C            6.51386041566692       -1.29952389148521        0.20097579901359
O            7.11624978557532       -2.29758818267828        0.91369047342949
C            6.37826727845267       -3.45889812736966        1.17508148060590
C            5.22198894645213       -1.31674966632405       -0.27248652637949
C           -0.37477615484769       -1.53534877450343       -0.70669792212373
C           -3.95818178392922        3.09222840091495        0.58849715689408
C           -4.64367084719775        2.83107141118930        1.92797098365080
C           -3.46856991781346        4.53718617452056        0.53964401020594
H           -4.62592534217593        0.92946608751093       -1.34382521150149
H           -6.76856196456586        0.23928576060369       -1.98895267166831
H           -7.01847432200539       -1.21992210634555       -2.98149509578460
H           -5.48727069977897       -0.31590975917918       -3.09900290794070
H           -5.15444748778671       -3.66392532000193        2.44527327971128
H           -5.44893594784675       -4.94629477757332        1.24315094779200
H           -3.79430275453440       -4.33740497234426        1.50754398232821
H           -3.33624594031719       -2.15878349193569        2.25539940064032
H           -2.38974680818163        0.07931083937648        2.17724366178241
H           -3.00917824561719        2.49168328520109       -1.77600857957311
H           -1.57754989307950        3.18799272119527       -1.02347198930521
H           -1.97125206634304        0.23258964647002       -1.64023783045761
H           -1.12979813315341        1.39434478366516       -2.67158729110996
H           -0.82428001327443        1.56010600446759        0.96142897969182
H            0.61313328032180        1.67393975754855       -0.80008659543688
H            1.94512349832542       -1.38388647895972        0.46938631993344
H            2.04869996594624        0.44455556078649        0.43304270526239
H            3.06503150747503        0.51554501910182       -2.09140106366453
H            3.06483426118516       -1.26863489854566       -1.83463770770585
H            5.13655364706720        1.67732774706944       -1.82812187372468
H            7.41696509116422        1.74087043007433       -0.99418453094382
H            9.05207420792900        1.77766972054850        0.71768508270439
H            9.64264552808032        1.01005455352097       -0.78540941249974
H           10.37083057364369        0.58943036200547        0.78156522927144
H            7.04704763561286       -4.10458966637898        1.74137048143129
H            5.48424986702473       -3.25368807179119        1.77554551150820
H            6.07908578725439       -3.95777347553053        0.24718821417057
H            4.60552530603848       -2.18540705969039       -0.11029880989572
H           -0.55145606144662       -1.74450224794993       -1.76440194961915
H           -1.35726606614330       -1.37197086743814       -0.23377435722971
H            0.12156914683704       -2.38355503295809       -0.23673101853209
H           -4.69947785248498        2.96041464143320       -0.20658242050508
H           -3.93200019673452        2.97718838100747        2.72930863726711
H           -5.02854112218233        1.81524548885166        1.97576697608320
H           -5.47149803654847        3.52349690076196        2.07046022109488
H           -2.70091649506924        4.68388765865559        1.28980050810750
H           -3.06814250167104        4.79104751888666       -0.43842124325910
H           -4.29762634900234        5.21127392512396        0.75264675424913
H           -0.82424883347219        2.84388087845602        2.89520298254125
