72
 energy: -6.207644574800 xtb: 6.6.1 (8d0f1dd)
N           -1.50912825430396        2.78755367298182        2.24647803564699
C           -1.56273525994776        2.15116271364632        1.16533285247403
C           -2.75281904436620        2.06037948066912        0.25309834625347
C           -3.32505096345175        0.65061689618363        0.33228862659120
C           -4.30677254702912        0.24627969424508       -0.57498249704371
C           -4.85431627875671       -1.02145331644398       -0.52978409670653
O           -5.81799405125888       -1.49177083451303       -1.37066789473407
C           -6.38367276923704       -0.61342172616257       -2.30887971320679
C           -4.41218480356417       -1.93955435572096        0.44853503760897
O           -5.00524225482294       -3.16593388889376        0.41226102748129
C           -4.68482384609734       -4.09605130096107        1.41431875104106
C           -3.44397679307750       -1.53761324314003        1.34811834540425
C           -2.90721349803198       -0.25587757687961        1.28931868506809
C           -2.19598220242313        2.30077178105552       -1.17514265670974
C           -1.26876653728067        1.17771498978404       -1.66829111611900
C           -0.00871061136844        1.10810138089555       -0.87838593859758
N            0.61937840225687       -0.08165360036162       -0.56223557174618
C            1.99071161160714       -0.08294579729572       -0.15969238753582
C            2.96654679431998       -0.51599311786297       -1.28892800883529
C            4.39319769084600       -0.41179310466018       -0.85255812343869
C            5.12292735505854        0.74303965651949       -1.06570123425674
C            6.43362270431546        0.84668144255794       -0.62268594956223
C            7.03313573619264       -0.20440028989279        0.04674913257024
O            8.30809540291777       -0.21372859376238        0.52577827411853
C            9.11024448830974        0.91954193676907        0.31680459009941
C            6.29688781051110       -1.38964345131231        0.27086545954267
O            6.97070902044285       -2.37359135921173        0.93016704982117
C            6.32280697518425       -3.59785903035468        1.15496742559679
C            4.99375407473387       -1.47544020288072       -0.17736135106467
C           -0.08648139695190       -1.32897986388512       -0.62741722888140
C           -3.87792681575593        3.07879734539217        0.58328258740156
C           -4.51116844247756        2.78148986408388        1.94113634620176
C           -3.40150296029315        4.52969884345576        0.54767766661756
H           -4.65487038893904        0.94341469126341       -1.31928657650371
H           -6.84008309579799        0.25635069285979       -1.82460736305884
H           -7.15666535008680       -1.18972811878162       -2.81505241765278
H           -5.64744729110769       -0.27441121508008       -3.04583379493041
H           -4.91334677846437       -3.70926629229543        2.41319314814736
H           -5.30916092302427       -4.96557078567592        1.21393637428241
H           -3.63087866407057       -4.39142427670314        1.37213570371600
H           -3.09952191456756       -2.21165656724332        2.11644640683435
H           -2.17255395836985        0.03060512049899        2.02557891906233
H           -3.02613923507097        2.39702878682875       -1.87575023891202
H           -1.64351653914363        3.24151257942268       -1.18498578265140
H           -1.81636449407256        0.23648950353347       -1.63284582816686
H           -1.01850305279785        1.38239475674514       -2.71821404010220
H           -0.69618690400709        1.64178538185536        0.67186687412286
H            0.65467427179987        1.95393850925540       -0.94872072108669
H            2.10096075915237       -0.74599255299416        0.70723060887457
H            2.26970538890672        0.93017497293365        0.14600893215635
H            2.80115357895640        0.11650528332816       -2.16370228301163
H            2.72510530925465       -1.54639980064456       -1.55161477504955
H            4.67814419434021        1.57471080079237       -1.59156781807170
H            6.97948897568612        1.75724907695321       -0.81112800682510
H            8.69545246237406        1.80653113508847        0.80727534952452
H            9.25035916844821        1.12639200869493       -0.74978136294278
H           10.07281557378481        0.67993747819104        0.76525390072857
H            7.05456021399986       -4.22291057854946        1.66425576434638
H            5.44207158075037       -3.47975072523049        1.79577557627105
H            6.02675529521900       -4.07823947363572        0.21584700548422
H            4.42336268486134       -2.37719737627335       -0.01792515382769
H           -0.25881430763592       -1.63769337831286       -1.66405090049981
H           -1.05576002517310       -1.25650199466930       -0.12218853337049
H            0.51072215097856       -2.09061226346983       -0.13089428810807
H           -4.64946855573271        2.95746944546079       -0.18530734792020
H           -3.77598828273043        2.91130949238047        2.72737548844714
H           -4.89135510169244        1.76351252162181        1.97796998453068
H           -5.33834833164397        3.46471427832025        2.11975535892291
H           -2.60996954706170        4.68405962327438        1.27424883624892
H           -3.04164756132993        4.81345129651211       -0.43822357470741
H           -4.23124813120847        5.18608304748799        0.80131432898854
H           -0.61950387263322        2.77730904316449        2.74232413251705
