25
 energy: 49.025065975496 xtb: 6.6.1 (8d0f1dd)
C            2.98791589098537        1.88411155821230        0.28566837571432
N            2.39553229490182       -0.10365874404936       -0.13735143237702
C            2.65535194261061       -1.36540700906107        0.16049719369433
N            1.50259414040191       -2.13602311831966        0.18424167417354
C            0.45359675557683       -1.29783383498097       -0.02904470605706
C            1.03527525201250       -0.04889846418166       -0.20726164045105
C            0.25462490079934        1.10753841212734       -0.46067759279481
O            0.62402238092118        2.15733152494273       -0.94734127806907
N           -1.09426943555876        0.90285878522977       -0.09663696364742
C           -1.90432129440064        2.10914332389688        0.01912848012260
C           -1.71961758060319       -0.30940384148772       -0.05062210732590
O           -2.92543709336925       -0.38000272919641        0.05169329016894
N           -0.91354726589426       -1.46903854455039       -0.07547302071204
C           -1.69707923484529       -2.69597485464051       -0.09769642037792
H            3.73794132282759        2.12225940052180        0.99468283013746
H            3.38284046961298        2.11888689741046       -0.72270372871631
H            2.02173071741772        2.25231252888465        0.47239404434473
H            3.59585936714984       -1.88324574227284        0.26370753470531
H           -1.27810664817207        2.97153739804921       -0.04510822370928
H           -2.60647330544720        2.20249394264373       -0.77001364072205
H           -2.36033711486482        2.16943300611614        0.99695383247995
H           -1.55404886598421       -3.28767345870096        0.81057750071444
H           -1.50360886048516       -3.31621169622975       -0.97453745803805
H           -2.74084627015690       -2.34092760868461       -0.16234827612524
H            1.52781941566330       -3.14197106628539        0.23392579691815
