25
 energy: 32.644891897821 xtb: 6.6.1 (8d0f1dd)
C            3.47147231100179        3.43950734336545        0.29400937397173
N            2.34303686880151       -0.79005470464588       -0.10304505684380
C            2.37846598966589       -2.07143004952558       -0.03675659750434
N            1.11878336653426       -2.63430067893217       -0.03088302149341
C            0.24782062942660       -1.59459063847300       -0.09428388137316
C            1.02053233891997       -0.44806238755563       -0.12537554342362
C            0.40195547849588        0.84455486624842       -0.14830997503938
O            0.95218823318060        1.91564646126844       -0.16499968502376
N           -0.99359320101634        0.76995292366836       -0.02427142940133
C           -1.68164066260521        2.04841697461719        0.11721972792674
C           -1.77430596034245       -0.36203567254584       -0.02346659010017
O           -2.98076347563505       -0.31698841962318        0.05412986331122
N           -1.10727084033079       -1.58266570615749       -0.10557269512937
C           -1.88347066361159       -2.79576996641406       -0.17293776800879
H            4.00802284542950        3.70329005941848        1.17260459315087
H            3.79000087733287        3.76603985788799       -0.67046881626617
H            2.53999146624768        2.93335273034840        0.36618073977627
H            3.28189182721440       -2.63908818512876        0.03019236465532
H           -0.94562398818743        2.85326920097975       -0.00756937380393
H           -2.45270832328663        2.13384210790811       -0.65022586752249
H           -2.15689987535493        2.07175262964387        1.09752126704798
H           -1.76467487615758       -3.35287601065750        0.75268156371451
H           -1.56688112657230       -3.38470462838508       -1.03589287050340
H           -2.92709779521147       -2.50319360358115       -0.27578073230198
H            0.90190680747102       -3.61235889953666        0.00569162050271
