  72
        -99.33511087
 N         -2.5496523403        2.6811341852        2.6026559389
 C         -1.9601845763        2.1576071561        1.5389290599
 C         -2.9212716227        1.9889923438        0.4110824040
 C         -3.4638609942        0.5581310822        0.3824165421
 C         -4.4908708647        0.2361097691       -0.5063870546
 C         -5.0093491838       -1.0456124706       -0.5706358351
 O         -6.0056096389       -1.4444544689       -1.3878497650
 C         -6.6754241902       -0.4869883735       -2.1733608531
 C         -4.4764248413       -2.0593093514        0.2705951461
 O         -5.0260470826       -3.2806735523        0.1204696744
 C         -4.5621972432       -4.3436943674        0.9190587597
 C         -3.4630961536       -1.7280469282        1.1538698135
 C         -2.9653325953       -0.4310179883        1.2107118447
 C         -2.3094878032        2.3377429474       -0.9597596054
 C         -1.3834028635        1.2487658739       -1.5246191130
 C         -0.0800229184        1.1564937054       -0.8325846108
 N          0.5298166373        0.0240241776       -0.4812070957
 C          1.9255718936        0.0427422035       -0.1124047956
 C          2.8335264290       -0.2149943635       -1.3319683182
 C          4.2799296757       -0.1512180729       -0.9318001768
 C          4.9849938236        1.0376740038       -1.0065577511
 C          6.3163830063        1.0983276918       -0.6229662042
 C          6.9669672818       -0.0311755423       -0.1498091809
 O          8.2541314877       -0.0897419826        0.2450356487
 C          9.0493494559        1.0700619549        0.1625818040
 C          6.2491991602       -1.2548976458       -0.0623833309
 O          6.9574612030       -2.3039220473        0.4061290396
 C          6.3375049904       -3.5636209806        0.4993017063
 C          4.9205433698       -1.2917368289       -0.4514531024
 C         -0.0710747356       -1.2674411124       -0.7112933001
 C         -4.0771111965        2.9498654706        0.8572920139
 C         -3.9410011044        2.9793582298        2.3905845467
 C         -3.9609600122        4.3672405874        0.3031793822
 H         -4.8884318635        1.0011832685       -1.1531285732
 H         -7.1092992369        0.3052770095       -1.5557409501
 H         -7.4742700033       -1.0291089942       -2.6751493729
 H         -6.0121097558       -0.0462957864       -2.9245791853
 H         -4.7347887730       -4.1536636391        1.9823839808
 H         -5.1395986367       -5.2129011703        0.6103582853
 H         -3.4980238047       -4.5374975052        0.7496424283
 H         -3.0556720430       -2.4713556220        1.8197317020
 H         -2.1854124481       -0.2055294343        1.9225205484
 H         -3.1217159552        2.4790289922       -1.6713832427
 H         -1.7587250618        3.2751271360       -0.8839479090
 H         -1.9051440958        0.2938008444       -1.5272254591
 H         -1.1854995732        1.5182532891       -2.5711562749
 H         -0.9203988736        1.8932193125        1.5296056743
 H          0.4701213895        2.0694239116       -0.6670816753
 H          2.1076752444       -0.7218675943        0.6464487694
 H          2.1750655220        1.0160720167        0.3151044421
 H          2.6217355038        0.5427683694       -2.0882536944
 H          2.6047188229       -1.1955302146       -1.7514649472
 H          4.5043252752        1.9289973679       -1.3805493990
 H          6.8420728491        2.0355747938       -0.7030599512
 H          8.6598208022        1.8698120653        0.8000221335
 H          9.1281130088        1.4293488691       -0.8679697551
 H         10.0345780698        0.7740050380        0.5175456571
 H          7.1009668379       -4.2374738292        0.8830550315
 H          5.4911091666       -3.5446545531        1.1937026640
 H          6.0006712460       -3.9191001831       -0.4796313184
 H          4.3693844404       -2.2177695515       -0.4007117138
 H         -0.1591985857       -1.4849352434       -1.7786163319
 H         -1.0659222199       -1.3064264913       -0.2631386261
 H          0.5460640750       -2.0351435040       -0.2510131047
 H         -5.0436487174        2.5372849695        0.5698143456
 H         -4.5800215803        2.2387215492        2.8996698019
 H         -5.7721817904        1.7200675215        4.6574795281
 H         -4.1851035896        3.9591155846        2.8059515222
 H         -3.0126308869        4.8208064793        0.5823648917
 H         -4.0519912354        4.3851140004       -0.7785115260
 H         -4.7639833409        4.9770047726        0.7098993794
 H         -2.1120079960        2.7938144015        3.5035199590
