25
 energy: 129.151191007643 xtb: 6.6.1 (8d0f1dd)
C            3.05878289113723        1.12883304473550        0.27270091992798
N            2.26216667858767       -0.07552752193292        0.12948405543933
C            2.67031982511702       -1.33929281582142        0.16706123782736
N            1.59867606629584       -2.16518980619400        0.04080063017338
C            0.44471149355731       -1.41658955398546       -0.11350907666227
C            0.90047976726462       -0.08560670740537       -0.04480589805774
C           -0.02156580695796        0.97748786720358       -0.07762892466399
O            0.19896406966652        2.18712137112905       -0.08594797117944
N           -1.28758925890565        0.48118182976743       -0.10269632601453
C           -2.66577389676570        3.27224961986141       -0.08370238334219
C           -1.94081643241318       -0.58897498436512       -0.21127139979279
O           -3.25903732541994        2.01334543433059       -0.07664481135823
N           -0.81117732847514       -1.77920520588411       -0.21628416307201
C           -1.22342081171720       -3.13325866708242       -0.30507332350959
H            3.51401682973815        1.20878396778033        1.26326812640594
H            3.77936987876045        1.16185386279270       -0.50555669167481
H            2.46078053331005        1.98498363250443        0.09551811860314
H            3.63944078058975       -1.67805218708298        0.37764988556428
H           -2.49777771022676        1.63772674350023       -0.49296325096573
H           -3.09510204436683        3.77330157598202        0.69439513798705
H           -1.59785779576832        3.33429641897736       -0.40839871473590
H           -0.90974977333454       -3.65938030993210        0.59237987643710
H           -0.77945852742657       -3.54416491580225       -1.20181928830568
H           -2.31673325987922       -3.16330963541357       -0.38564302405935
H            1.63644448496036       -3.15810154348725        0.11736442971224
