25
 energy: 133.448303886202 xtb: 6.6.1 (8d0f1dd)
C            3.07049433868266        1.14077006745404        0.22778209119234
N            2.23392432496060       -0.03149574986367        0.13812842566040
C            2.56558182180212       -1.32108949391157        0.09658502305299
N            1.42861770101246       -2.07388047126414        0.03356199943869
C            0.31970899730433       -1.23914639405919       -0.03766920179557
C            0.87728685695858        0.06002928938241        0.02430470281980
C            0.11640073058326        1.26374546300022        0.03337603181019
O            0.54062588262054        2.40347487905439       -0.07010622057964
N           -1.19696511601009        0.97025665785166        0.20990317000004
C           -2.33505780725292        2.99889344602695       -0.09913706470164
C           -2.09860901537893        0.14011972611984       -0.02108372624069
O           -3.25401423021997        0.32967857150597       -0.12131354858698
N           -0.95425982110631       -1.47392134734124       -0.23566600222217
C           -1.34930854114235       -2.82384408280260       -0.27806626773792
H            3.73195849331202        1.08019192246314        1.08763174721250
H            3.62486668965591        1.28993343735210       -0.70953466917115
H            2.43692813352987        2.01355878987534        0.42109943332531
H            3.50644903166153       -1.74535131040760        0.39190189110566
H           -2.25091835748920        2.22144743267982       -0.71415341550890
H           -3.01492077177076        2.81415432498763        0.62464264773761
H           -1.58243792044643        2.78115116345049        0.49952345431943
H           -0.99403273504008       -3.36210974689043        0.60408001047620
H           -0.87924138204691       -3.23373351322252       -1.17202051785565
H           -2.43923777657957       -2.87147274976659       -0.28286853756905
H            1.37352081109077       -3.07248161054920       -0.00142694390030
