25
 energy: 127.732757073870 xtb: 6.6.1 (8d0f1dd)
C            3.07770242252274        1.12996050573731        0.24765004224231
N            2.23614364864396       -0.04060353107244        0.12443721175406
C            2.57999655164377       -1.32126845775793        0.10178405831147
N            1.46146905948982       -2.09360539518127        0.01623895325279
C            0.33408273101747       -1.26936677404029       -0.04009412725824
C            0.87724349513691        0.03447215824130        0.02221707311361
C            0.10276812166423        1.22727402495343        0.01992631817753
O            0.52605682075517        2.36592308553289       -0.10811857012092
N           -1.20729241396903        0.94910915512691        0.17665807770376
C           -2.45938668825279        3.00658096407037       -0.08998928411360
C           -2.15710813030087        0.18797558094998       -0.05603568845122
O           -3.30078125402231        0.44854354099221       -0.11181297481775
N           -0.92568565562101       -1.52043686145307       -0.25736874495162
C           -1.32544905460829       -2.87607783098746       -0.29413241801543
H            3.67068364201809        1.10832530142920        1.15574554509341
H            3.69150938206029        1.23722543756372       -0.65659778651378
H            2.43705948312747        2.00999704871244        0.33627340404121
H            3.50800757480202       -1.73242776143870        0.43657319059093
H           -2.62344745174831        2.13669568170582       -0.62914062199438
H           -2.74472479024941        2.82856134829254        0.86258628529135
H           -1.46697558664334        2.93331896821050        0.01983119735523
H           -0.98040623493743       -3.39562855294864        0.59851674963689
H           -0.83371503156050       -3.27062010219384       -1.17923679245186
H           -2.41796378330423       -2.90607260094019       -0.33411438027117
H            1.42796034768510       -3.09127735678121       -0.02099339749095
