25
 energy: 75.649605460715 xtb: 6.6.1 (8d0f1dd)
C            3.04594074901570        1.13059968396917        0.22216369547628
N            2.24729524982124       -0.04855040305554        0.12348524398991
C            2.70184001359524       -1.33887456817601        0.17187217086818
N            1.62008649639161       -2.18229961722389        0.04623232301568
C            0.50140225889030       -1.42628906789041       -0.07839186893518
C            0.87644536645997       -0.09252839592271       -0.02918237480893
C           -0.09529527394179        0.95746880354175       -0.08020561296115
O            0.11281698671745        2.17065927590739       -0.06445481918840
N           -1.38536820397692        0.42103466787547       -0.14863516051128
C           -2.75792938276768        3.57035764959431        0.11283674129672
C           -1.78341859297871       -0.84671273124474       -0.22648309117709
O           -3.23136387445289        2.45595362019712        0.01022258730941
N           -0.79687874147621       -1.79923409887062       -0.21110728655557
C           -1.18090046154359       -3.18815638822172       -0.30468921225133
H            3.57896446703927        1.15317821968600        1.17557199786143
H            3.77594532847010        1.16880270527540       -0.58977589967963
H            2.38347824463787        1.99195098011153        0.15474038930771
H            3.71108086264431       -1.63659813130091        0.29588767863602
H           -2.14467150193715        1.12642558276075       -0.14436392465988
H           -3.39210786443539        4.43701207617627        0.33503977834206
H           -1.68635910205716        3.76733041649318       -0.00580554737806
H           -0.86838572332023       -3.74046587492444        0.58476155483590
H           -0.74609497935550       -3.65260022753431       -1.19305763880372
H           -2.26585448852213       -3.22553915099839       -0.38127416879519
H            1.69154647205380       -3.18389623748106        0.05164635696040
