25
 energy: 77.481925610428 xtb: 6.6.1 (8d0f1dd)
C            3.04067806607618        1.14197197456945        0.23895925498040
N            2.24765623863643       -0.04693562904276        0.12943189445825
C            2.71026817405798       -1.34072143131721        0.17730507195220
N            1.62473480987958       -2.18632844752152        0.04179760589069
C            0.49922210654121       -1.42785062147790       -0.07747072390043
C            0.87878104361346       -0.09365503027808       -0.03447823962019
C           -0.09580756172218        0.94704618246613       -0.08584896682996
O            0.12414324259938        2.16314101813457       -0.06117122509658
N           -1.39280850398232        0.41408301263225       -0.15351869226273
C           -2.77013003215597        3.57027960052869        0.10096502233682
C           -1.81232958812842       -0.84663835986730       -0.23102534488715
O           -3.20310865203954        2.41920796253300        0.01318504811388
N           -0.79304687038110       -1.81247699432474       -0.21565750789033
C           -1.16348279416883       -3.20943379703516       -0.30535046131977
H            3.58522722459343        1.16433698374053        1.18882350562529
H            3.76739155813014        1.17812073846972       -0.57043986239594
H            2.37124048167508        1.99602818869259        0.16411429278110
H            3.72565389510239       -1.63922333365166        0.29535872412359
H           -2.15231548495546        1.17902330680033       -0.09460704016145
H           -3.42524026710597        4.45496468571928        0.29412535378526
H           -1.70063508482301        3.76692704449952        0.04109001759348
H           -0.86154330913556       -3.75581644764061        0.58892719846455
H           -0.73414408808189       -3.68815367377636       -1.19140769408496
H           -2.24421275400188       -3.22914997783289       -0.37933894111971
H            1.70719637111492       -3.18957249982003        0.04366798218056
