25
 energy: -42.494637160788 xtb: 6.6.1 (8d0f1dd)
C            3.17329787652343        1.31241411005679        0.07413750729968
N            2.26045240477017        0.20291410758555       -0.04892012367863
C            2.59109473149162       -1.07997874240108       -0.23803557964223
N            1.42805906295993       -1.78817282864993       -0.09012062958875
C            0.36405137271214       -0.94960021369643        0.04195189082718
C            0.87554842151393        0.33082182470566        0.09473078014425
C            0.02047514453052        1.47790236344025        0.04495305925606
O            0.35365942891730        2.64848320118298        0.00968777369556
N           -1.34144389766335        1.09734224186234       -0.01385545049740
C           -2.32627024725607        2.17108146027259       -0.05352166492208
C           -1.87388468184435       -0.17110852974322       -0.03583718709076
O           -3.06655412717291       -0.37112031745540       -0.08909296389692
N           -0.96728516978884       -1.23168512593506        0.01278866072821
C           -1.45784177892167       -2.59360914383997       -0.04616414833913
H            3.54959020386551        1.41185314183209        1.09667218422768
H            4.01955409054736        1.14754660643815       -0.59070922667660
H            2.64381885709503        2.22825002259113       -0.18822910230589
H            4.63277190291133       -3.27531115023827        0.20911815647428
H           -1.77977265403631        3.11257002948468       -0.02438118560279
H           -2.93003582108633        2.10337556530612       -0.95943700938281
H           -2.98577072629179        2.08503663857907        0.80931506685109
H           -1.14409265602298       -3.14575197805318        0.84151743101695
H           -1.10091474875993       -3.10855900854002       -0.94249497059746
H           -2.54550173598004       -2.53908357876041       -0.07368509176570
H            1.39478341615317       -2.79489420542688       -0.08541602554870
