  25
        -42.15219145
 C          3.1997676811        1.1430608371        0.2033129640
 N          2.2395606604        0.0814564998        0.0703555852
 C          2.5071144029       -1.2043671609       -0.0676151877
 N          1.3557063268       -1.9075752313       -0.1191636045
 C          0.3058487879       -1.0367336739       -0.0039079304
 C          0.8699852047        0.2452657601        0.1052028491
 C          0.1349203721        1.4879779416       -0.0326010178
 O          0.6082920129        2.5945973027       -0.1469389072
 N         -1.2518737955        1.2148856279       -0.0958191441
 C         -2.1367841142        2.0521644739       -0.4589150640
 C         -1.9115455388       -0.3653201521        0.6343460338
 O         -3.0902588233       -0.4308190187        0.3828363565
 N         -0.9892385605       -1.3296749384        0.0115567890
 C         -1.5314512062       -2.5831669888       -0.4582668434
 H          3.4263029667        1.3123101588        1.2580377359
 H          4.1184629457        0.8862464679       -0.3196738293
 H          2.7785055666        2.0621448728       -0.2042735109
 H          3.4873301494       -1.6346860417       -0.1322037364
 H         -1.8964834475        3.0656502221       -0.7572683209
 H         -3.1640024003        1.7051884545       -0.4544004131
 H         -1.5165208496       -0.0788234753        1.6245975540
 H         -1.3875816439       -3.3837889337        0.2708559567
 H         -1.0817063131       -2.8600301343       -1.4111822023
 H         -2.6024502175       -2.4295921603       -0.5966933172
 H          1.2838281526       -2.9079762957       -0.2383375423
