25
 energy: -42.094891495242 gnorm: 0.002796607747 xtb: 6.6.1 (8d0f1dd)
C            5.40716180747973        0.22663683073336       -0.03669672383419
N            1.83992217953803        0.49305816342896        0.13022831176751
C            2.31973435900437       -0.75130359944872        0.17054822728330
N            1.25070834183926       -1.58131770385036        0.13358799932097
C            0.09575694051346       -0.85687967050156        0.06971959241472
C            0.46987658178730        0.47764291016722        0.06744879322414
C           -0.48940369272180        1.55110231248140       -0.00215338137121
O           -0.23480647164444        2.73143871511494       -0.01562039731195
N           -1.79432796759657        1.05264589500576       -0.05774445816741
C           -2.87584289281757        2.02069687708757       -0.13135628676166
C           -2.19452628210803       -0.27356104207161       -0.05215562917786
O           -3.35333125505341       -0.58707471054357       -0.10286145756495
N           -1.18814310545815       -1.25523312483723        0.01425313739247
C           -1.56737791305688       -2.65211876076935        0.01865299053623
H            6.17376047518533        0.01248720565392        0.68254695737224
H            5.59505899338986        0.95806211358768       -0.79893161232942
H            2.38953088053008        1.34004728899199        0.14945992756966
H            4.45425498924879       -0.27554676367393        0.02942725315682
H           -2.43837475101152        3.01687195901207       -0.14121919301097
H           -3.46247317593846        1.85383325685391       -1.03545619941434
H           -3.53706139004683        1.90532207459778        0.72833385247220
H           -1.22381179290278       -3.13691199937776        0.93343849043186
H           -1.14959485411461       -3.16290536995762       -0.85008154109659
H           -2.65482147169843       -2.70149112738474       -0.02613218769769
H            1.32856298174442       -2.58726318869676        0.15393515266853
