  72
        -99.37191493
 N         -1.4465951856        2.6752133768        2.3362843504
 C         -1.6030618635        1.9052200242        1.3626873480
 C         -2.8321298249        1.9081115086        0.4952661779
 C         -3.4312117298        0.5164782189        0.4433671623
 C         -4.3769736330        0.1920150101       -0.5288058021
 C         -4.9609347775       -1.0642661533       -0.5794535918
 O         -5.8839406561       -1.4598086680       -1.4761061051
 C         -6.3853404563       -0.5345120804       -2.4121188200
 C         -4.5851482574       -2.0512634450        0.3751689843
 O         -5.1915950190       -3.2439054600        0.2426799820
 C         -4.9083258912       -4.2684557029        1.1677009345
 C         -3.6547376085       -1.7152997749        1.3477864340
 C         -3.0922958239       -0.4481010306        1.3835497974
 C         -2.2879938652        2.3162982093       -0.9369503023
 C         -1.5331711412        1.2508657927       -1.6014471765
 C         -0.0601291512        1.1466229939       -1.5429057255
 N          0.4150481041        0.2004793112       -0.5214996802
 C          1.8312878804        0.2650613999       -0.2593809965
 C          2.7470579855       -0.2068828774       -1.4136849246
 C          4.1809157170       -0.1446904226       -0.9876117769
 C          4.9102594623        1.0299269116       -1.1233374816
 C          6.2294429177        1.1008095458       -0.7088974363
 C          6.8530878686       -0.0045012639       -0.1430093895
 O          8.1236050003       -0.0533744288        0.2894518625
 C          8.9414651037        1.0878121726        0.1670543485
 C          6.1129264833       -1.2132980021        0.0057340743
 O          6.7923163939       -2.2343728226        0.5578005502
 C          6.1571733487       -3.4800819264        0.7243900268
 C          4.7919904575       -1.2570709380       -0.4149071316
 C         -0.1236871084       -1.1317355097       -0.6651587364
 C         -3.9324756674        2.9054019962        0.9452355716
 C         -4.4561157675        2.5482464500        2.3354388028
 C         -3.4804060313        4.3623098664        0.9224540996
 H         -4.6667782672        0.9340867147       -1.2543975995
 H         -6.8481040623        0.3246079605       -1.9173399934
 H         -7.1418932342       -1.0741283485       -2.9785025117
 H         -5.6030182855       -0.1879602528       -3.0947878285
 H         -5.1690692633       -3.9707211453        2.1874917599
 H         -5.5278210304       -5.1115884672        0.8682648931
 H         -3.8544550988       -4.5611238225        1.1302159798
 H         -3.3649426315       -2.4359837460        2.0948921746
 H         -2.3926153865       -0.2145172249        2.1705241661
 H         -3.1597557971        2.5901596725       -1.5339627709
 H         -1.6626494670        3.1990328717       -0.7971635566
 H         -2.0759702066        0.4758070085       -2.1161707793
 H          0.3094240300        0.8256091278       -2.5317294523
 H         -0.8445810561        1.1893295985        1.0150248134
 H          0.3788354642        2.1178223903       -1.2968333506
 H          2.0322758936       -0.3531339570        0.6204003673
 H          2.0849478173        1.2990876963       -0.0095033164
 H          2.5917942534        0.4389562805       -2.2791270644
 H          2.4814723992       -1.2295761201       -1.6840065445
 H          4.4503472368        1.8996521826       -1.5671639344
 H          6.7708435374        2.0241663277       -0.8344657136
 H          8.5433462013        1.9289120507        0.7424555756
 H          9.0602877772        1.3839608502       -0.8793566912
 H          9.9089047116        0.7983311185        0.5728170403
 H          6.9077314720       -4.1342542831        1.1637552876
 H          5.3008162085       -3.4055116327        1.4019174389
 H          5.8313417291       -3.8951083637       -0.2342265465
 H          4.2244460788       -2.1686862846       -0.3117244608
 H          0.0868090673       -1.5731584529       -1.6472434036
 H         -1.2051105881       -1.0919200000       -0.5309823915
 H          0.2980248559       -1.7733265067        0.1061245888
 H         -4.7622609741        2.7938713463        0.2368603855
 H         -3.6702781718        2.6782401006        3.0733869437
 H         -4.8096714590        1.5204277254        2.3707582366
 H         -5.2834540517        3.2043050227        2.5929047238
 H         -2.6223258276        4.4982824282        1.5737518713
 H         -3.2274114140        4.6935993045       -0.0812569566
 H         -4.2879899448        4.9925069019        1.2860622936
 H         -0.5715337014        2.6267118955        2.8476144951
