72
 energy: -99.343055686949 gnorm: 0.006316979623 xtb: 6.6.1 (8d0f1dd)
N           -2.56222829244823        2.74490522915271        2.27175386903631
C           -1.94911184848627        2.20001346210205        1.23389542009516
C           -2.91657379574391        1.92365798855086        0.13322228792602
C           -3.43951755762296        0.48917742153319        0.22369872357879
C           -4.45491403602920        0.07946050680886       -0.64055804842889
C           -4.97853635261218       -1.20055085672619       -0.57722126556018
O           -5.95523666444247       -1.68470245194305       -1.37128524348353
C           -6.57040270759749       -0.83302469088617       -2.30830471986200
C           -4.47557776061837       -2.11404019646121        0.38780948769795
O           -5.05070669167991       -3.33253492434320        0.38586389134499
C           -4.67967441112137       -4.26090618751935        1.37860711584378
C           -3.45775760504379       -1.70186813741363        1.23136134129489
C           -2.94578043617994       -0.41349757712445        1.14937747222482
C           -2.33761696785803        2.18619116341811       -1.26997726360873
C           -1.40080843987336        1.07279529660793       -1.76694871150851
C           -0.09380859046136        1.05783840216947       -1.07630790892004
N            0.52236000675036       -0.02375128293296       -0.60467612363445
C            1.90250147446545        0.05456995915239       -0.18997103837055
C            2.86177643605538       -0.36800287845128       -1.32128173247846
C            4.28651283565372       -0.15745479840465       -0.89356947886709
C            4.91886154841825        1.05304012523813       -1.12163732472004
C            6.22318038476233        1.26315681455787       -0.70054890340591
C            6.91963026042273        0.26475907469177       -0.03620153968729
O            8.18433749033586        0.35839378352558        0.41924983864769
C            8.90006420982762        1.55392022050190        0.21210426112075
C            6.27911054461559       -0.98164607900076        0.20220675435204
O            7.03062343447362       -1.89783910180929        0.84762485654159
C            6.49395788594448       -3.17423321650535        1.09862560049523
C            4.97488244742445       -1.16824064677704       -0.22617698996934
C           -0.06457522871325       -1.33873198680025       -0.69434804430308
C           -4.08322505293082        2.88792970610120        0.53535596601468
C           -3.97790172198524        2.85505732121406        2.06543215078541
C           -3.91057140318493        4.31565606373652        0.00677934011045
H           -4.84759629331139        0.77570570094543       -1.36374418736528
H           -7.04512986051213        0.02445537795902       -1.82137240540440
H           -7.33380503914666       -1.43818863802755       -2.79378181879749
H           -5.85805167233082       -0.47995863388570       -3.06137062012170
H           -4.86292307479078       -3.86569735861746        2.38186874972737
H           -5.30768544334607       -5.13413267261858        1.21289993382425
H           -3.62738900215497       -4.54930226808384        1.28420103833381
H           -3.06589497766500       -2.36980398671390        1.98053781006939
H           -2.16594733323853       -0.11876118060516        1.83527176924796
H           -3.16486398357432        2.26576642460597       -1.97400076545339
H           -1.80189161489891        3.13529795587644       -1.27099634840859
H           -1.90639503249077        0.11184868347452       -1.69169494454350
H           -1.21430217946008        1.26545970507058       -2.83188385031484
H           -0.89578295350177        1.99867976137097        1.22809125750404
H            0.44252466763735        1.99019682544752       -0.99639193025267
H            2.05571088873029       -0.59114396972804        0.67832132435281
H            2.13488749604341        1.08107517173626        0.10125379973527
H            2.64512206116481        0.23730337416786       -2.20332429001185
H            2.69296722873129       -1.41609212348949       -1.57072012690507
H            4.40129927760474        1.84315961719357       -1.64442339308972
H            6.69167048509010        2.21266917649244       -0.90089698788377
H            8.41583047791496        2.40178626201583        0.70650675605948
H            9.01817398869707        1.77089093234964       -0.85381484158690
H            9.87929155639232        1.38859178757922        0.65712107297374
H            7.28219378887025       -3.72768102495589        1.60523783043882
H            5.61540289427582       -3.12024679781670        1.74981858739640
H            6.23049258293746       -3.68908088857290        0.16939238458096
H            4.48214607792093       -2.11287833600284       -0.05681617512737
H           -0.13632216788102       -1.67478415967014       -1.73158599687400
H           -1.06490888211312       -1.33801195995096       -0.25568930876830
H            0.55350610830762       -2.04366404898475       -0.14384522278493
H           -5.04347613215615        2.49589501676170        0.20095229835235
H           -4.38618282874648        3.73769401422825        2.55267717938972
H           -4.47840548740022        1.93972082362016        2.49215029179799
H           -4.84948885136237        0.42851908035871        3.20078701014653
H           -2.94738193273393        4.72894682263072        0.29970418333491
H           -3.99617221090282        4.34714338111278       -1.07502023639277
H           -4.69439489849935        4.94723912032271        0.41961237590433
H           -2.13358552562307        2.89602502893409        3.17227859921776
