72
 energy: -99.411947495361 gnorm: 0.007668424404 xtb: 6.6.1 (8d0f1dd)
N           -0.88612303438917        2.28840526790618        0.01249186351418
C           -2.13535186416983        2.30894143388041        0.44975390467943
C           -3.26976190452853        1.73388379111466       -0.31303441540012
C           -3.66057181349784        0.37022845054218        0.26752753002310
C           -4.70160952892165       -0.35466853487727       -0.31090615226116
C           -5.08275391424292       -1.58859397384810        0.18875892617134
O           -6.07787741189684       -2.35326696052618       -0.30240382129230
C           -6.81934958242647       -1.89356821888418       -1.40740433907545
C           -4.40059913680610       -2.13173415253690        1.31096961852597
O           -4.83984542711964       -3.33396994620521        1.73168675199062
C           -4.25765712123370       -3.91112636067041        2.87718881360263
C           -3.36422412979872       -1.40659429919303        1.87483075166975
C           -2.99858855950118       -0.17267700598850        1.35565806776083
C           -2.81367360728263        1.53264203129548       -1.77100039260273
C           -1.50937626752616        0.74440299049972       -1.78962373621684
C           -0.38599226601536        1.57966972487849       -1.17582644432960
N            0.78195773848996        0.80779235036135       -0.88675213519536
C            2.06131010400535        1.51628758285394       -0.84797089459938
C            3.14494159647545        0.58487447798034       -1.29911320464993
C            4.40718254003900        0.45104226559957       -0.84121153747366
C            5.05390193119377        1.31707075582959        0.20378082426749
C            6.05972756998025        0.58873093216982        1.03596304019697
C            6.69406778045490       -0.50787328275136        0.58144214143267
O            7.63993543272537       -1.22345246194353        1.22024196465676
C            8.05092792220911       -0.80930191482320        2.50198034154420
C            6.34153886329721       -1.05013144356294       -0.73453502020917
O            7.15950360883544       -2.02503040227064       -1.15132049375793
C            6.92771141177836       -2.63030610075904       -2.40216414813472
C            5.23733485167709       -0.59215571583751       -1.38244527826185
C            0.68102490562228       -0.16288118022494        0.18277594310020
C           -4.49814816701142        2.69601108679692       -0.22580075387890
C           -5.13721143917468        2.69335584664136        1.16128813591298
C           -4.14517503227175        4.12866665965654       -0.61977454553641
H           -5.23254551585149        0.05634067299413       -1.15326384620713
H           -7.34227558758123       -0.95951475469925       -1.18180467301750
H           -7.55121100509332       -2.67140453838327       -1.61169650627083
H           -6.18473001099879       -1.75554986632574       -2.28848603875073
H           -4.38732933103752       -3.27233716537180        3.75556020050135
H           -4.78538878464418       -4.84933722358993        3.03285816690918
H           -3.19338421247051       -4.11523093636560        2.72776791416337
H           -2.82899345921606       -1.79185418410344        2.72710459341733
H           -2.18827837938798        0.36549346470057        1.82275880843082
H           -3.57577787865827        0.99369299521317       -2.32978922797940
H           -2.66149359368367        2.49800434894691       -2.25294272686405
H           -1.64746612834472       -0.18111741421562       -1.23266218532781
H           -1.22510605685338        0.48640382764529       -2.80888240327782
H           -2.32001085532517        2.78946762459408        1.39675615241729
H           -0.09147955653585        2.35297599552757       -1.90235271441207
H            2.27729587628009        1.91144312239519        0.15763703213401
H            2.00809435867018        2.36600623369490       -1.53784961152554
H            5.60469134450855        2.13142229832691       -0.29990826391668
H            2.81780184892722       -0.07533332511324       -2.09082141903533
H            4.30911646985848        1.79053337252774        0.84541532642171
H            6.30795723381021        1.03200610360455        1.98619148359404
H            7.21445210244654       -0.80646134803670        3.20683662807731
H            8.50631239941102        0.18448703871145        2.47370252017706
H            8.79154542988105       -1.53856773979723        2.82188571582737
H            7.73397159167019       -3.34864381346804       -2.53520811179724
H            5.96743473513662       -3.15444740530588       -2.41971211917772
H            6.95586047617770       -1.89442892800832       -3.21110257958983
H            4.90338200049326       -1.06226513231565       -2.29355978929524
H           -0.18591936686088       -0.80086000671655        0.03922443337351
H            0.61562522756151        0.30426808064957        1.17588549526342
H            1.57590142823674       -0.78396655298680        0.15937464128178
H           -5.23786528307683        2.32152199745556       -0.93870973489166
H           -4.48358446319745        3.14955574527989        1.90031884013283
H           -5.37561760443104        1.68494310766981        1.48739945577454
H           -6.05900999787111        3.26943787134356        1.13607836271142
H           -3.39277983696859        4.54686514833329        0.04477018105675
H           -3.77971482133737        4.19267978034255       -1.64048465001717
H           -5.03652534378906        4.74844996260392       -0.55036440509068
H           -0.17361590182482        2.75478737148586        0.55828859123538
