25
 energy: -42.145913539726 gnorm: 0.001664020610 xtb: 6.6.1 (8d0f1dd)
C            3.78206726290027        0.85597590542891        0.10800116884315
N            2.81758492578334       -0.20550927481076        0.05590551571497
C            3.05313864874879       -1.49942056011414       -0.04151586876023
N            1.91255513206591       -2.19510447834790       -0.07561702862082
C            0.79868758694036       -1.32187826658364       -0.00915903705802
C            1.42623482313662        0.00183036976037        0.09000799888871
C            0.80529107591654        1.16614528347642        0.21500678030338
O            0.20913390589319        2.15232836463663        0.31456583889103
N           -3.07816451259982        1.66430861347504        0.01530702284170
C           -3.62182008601821        2.91485450245981       -0.33170510532564
C           -3.20769127558414        0.58084298540517        0.48281954989806
O           -3.12683629721966       -0.49863425848815        0.89607643366552
N           -0.43075019967410       -1.55935135323131       -0.03359800954807
C           -1.07523465338027       -2.82345597991614       -0.10184379707194
H            3.68378392476034        1.41114756533308        1.04329133757068
H            4.78626178349595        0.44208417211499        0.04320496670412
H            3.62500112554538        1.54733575723551       -0.72253923326990
H            4.03509146413108       -1.93333566339683       -0.09182089896949
H           -2.79336559985486        3.60923697505311       -0.47568319126605
H           -4.18540947890840        2.83499211303146       -1.26418795695151
H           -4.27837297399622        3.29302886101446        0.45486478088789
H           -0.49802872229749       -3.64621212140467        0.33116966020500
H           -1.30202386574476       -3.05340403276350       -1.14560215416844
H           -2.02277511510407       -2.72113354948979        0.42729578494449
H            1.84607263516561       -3.19843338827301       -0.15307294045010
