25
 energy: 103.672503187511 xtb: 6.6.1 (8d0f1dd)
C            3.00182460903586        1.38497253950028        0.57825498150388
N            2.17358597818006        0.45343372318532        0.66234110892516
C            3.03781534744921       -1.59911327154911       -0.81271111970766
N            1.62615585287736       -1.78265620602335        0.05291297697838
C            0.52747115620141       -0.83213450147644        0.14455785627168
C            0.85226189414305        0.48965803120671        0.34239927657365
C           -0.05399031825734        1.62025774219979        0.28961698450681
O            0.25027626463836        2.79811445292214        0.38782121583847
N           -1.41645840481187        1.21021683339480        0.06830366711214
C           -2.48735086451961        2.20804688747249       -0.16878881689544
C           -1.74837629820780       -0.11143176623290       -0.06331901509756
O           -2.88210274702488       -0.45602007154020       -0.31371204658873
N           -0.72503804462493       -1.26692953371562        0.12803646776438
C           -1.19290046351891       -2.61582964436854        0.03001949247436
H            3.85033211771863        1.21409204446962        1.18647832479929
H            3.76890949560450       -0.71896307576212       -0.77041851535161
H            2.79828162341407        2.38147943068275        0.25678637946430
H            3.59454890284081       -2.42071711248511       -1.26623190833625
H           -2.04378101245891        3.19957970417572       -0.29065356482450
H           -3.08779772362895        1.99759667791024       -1.06238369629304
H           -3.17282939108692        2.25257951810357        0.67997214131546
H           -1.21267684719070       -3.10288864556417        1.01365451307193
H           -0.61943371385965       -3.22927573901298       -0.67003959106130
H           -2.21992819920589       -2.51292628998876       -0.33330115221285
H            1.30545788507201       -2.76117372862121        0.24381312708279
