25
 energy: 96.217732226584 xtb: 6.6.1 (8d0f1dd)
C            3.03983795901387        1.34899554419494        0.54465065028435
N            2.18996804348907        0.43349504510456        0.61942095538619
C            3.00872391884019       -1.54715661859958       -0.74114665264756
N            1.63002357395568       -1.78227907306992        0.02187902948772
C            0.53556351893198       -0.84748053207133        0.13898876110201
C            0.86748618125885        0.47405255215409        0.31341858549912
C           -0.03340474517275        1.60461033268433        0.26948121358640
O            0.27342122871183        2.78539340140454        0.35450746597975
N           -1.40017779640709        1.19431015742471        0.06132746816493
C           -2.46329276655137        2.19822531338535       -0.15892044173624
C           -1.74336385921090       -0.12452810977880       -0.06281844894419
O           -2.88525516914681       -0.45669898830275       -0.30366529470634
N           -0.73557767593925       -1.25774977486869        0.12310464488707
C           -1.21357206297518       -2.61243795188268        0.01893923510205
H            3.87873364109625        1.18322267050010        1.17623091695172
H            3.77822563217964       -0.62207932400725       -0.73164286641055
H            2.84956914104994        2.34914122461152        0.22169794971493
H            3.58905467680949       -2.35828090216701       -1.15207467972542
H           -2.00848754407682        3.18550391546957       -0.26426187266924
H           -3.06175362649031        2.00893515718797       -1.05787626007924
H           -3.14548382987813        2.23101914100489        0.69317387862511
H           -1.20038645990174       -3.10789002596697        0.99707123138719
H           -0.66314966058822       -3.22868434297925       -0.70540222636631
H           -2.25315303951517       -2.50933210812599       -0.31330911485155
H            1.29856431371892       -2.76786466615467        0.20069946510728
