25
 energy: 174.513317554599 xtb: 6.6.1 (8d0f1dd)
C            2.67010984913551        1.49042978390863        0.79711093810978
N            1.78783897338197        0.57861983770657        0.78314267167591
C            4.09616711590862       -2.06096684671186       -1.23042724129882
N            1.19435004874667       -2.02737660466591        0.32128375074658
C           -0.36658582551057       -0.41899091721198        0.15408857668529
C            0.50924049463229        0.65901081587102        0.41107795681507
C           -0.27685634651735        1.90772333993986        0.29932676596929
O            0.11233078920138        3.05076193070305        0.41494172519522
N           -1.57546686803496        1.52212392000141       -0.01266394308720
C           -2.66828705384310        2.43996558591765       -0.21086703560754
C           -1.70127003658558        0.14717317382536       -0.09935331468581
O           -2.74408270443661       -0.42026951555492       -0.37293300571482
N           -0.02673295362887       -1.72532277634119        0.16138255383804
C           -1.04047281887886       -2.75122724506175        0.01185919917071
H            3.63960393833682        1.25751891948316        1.21529407966428
H            4.62739603354846       -1.16875984399979       -1.55435171252781
H            2.51507414824668        2.50607338941521        0.43065189397095
H            4.59243904360091       -3.01066086543269       -1.40488280184477
H           -2.26334293456401        3.44131811591805       -0.34807523857536
H           -3.24048184596430        2.14051606446401       -1.09039858265168
H           -3.33416788945175        2.43328798071111        0.65378013857817
H           -1.21604070823636       -3.23562490769124        0.97431916971514
H           -0.68662956116453       -3.49918266527299       -0.69853713570648
H           -1.96136592661065       -2.30866898996551       -0.35216843296250
H            1.37760938719031       -3.02303282633638        0.35976761235267
