25
 energy: 178.129288133404 xtb: 6.6.1 (8d0f1dd)
C            2.66171041678424        1.56081752899589        0.86241898097875
N            1.80943654472267        0.62870922891631        0.80098519197545
C            3.87325644148062       -2.11168150814760       -1.29648840220685
N            1.13422495783670       -1.98716806764359        0.39538518461738
C           -0.30608791258190       -0.41303868135205        0.14504125809432
C            0.54814450639657        0.66088775818257        0.40135542969279
C           -0.25280256002202        1.87160296645156        0.31561733497904
O            0.08748746704442        3.01755363282929        0.49472935641244
N           -1.55763588981569        1.49096653229313       -0.01316795900022
C           -2.65471247938075        2.39670933896959       -0.22573373970435
C           -1.68476157741227        0.14778244487563       -0.11595358297481
O           -2.72319283778249       -0.43880415323867       -0.36989664857700
N           -0.09663480468800       -1.73423632308229        0.18568009776515
C           -1.08306975602724       -2.77466198292904        0.01100517287719
H            3.57718104257196        1.29004227900166        1.35095184654248
H            4.47600925684761       -1.19856312890003       -1.52121060722357
H            2.49025217441255        2.56695785996930        0.47081445240502
H            4.52874503310963       -3.00065193986001       -1.27119310300613
H           -2.25171097118708        3.39309412190397       -0.38830714275102
H           -3.22796591431711        2.09368993952061       -1.09876263628627
H           -3.35046753051349        2.43408596111638        0.61610813202458
H           -1.23748936248473       -3.24309679206090        0.98313094078234
H           -0.62398904622760       -3.47532179393309       -0.66772050201325
H           -2.02720016231764       -2.40204181924132       -0.38418140652774
H            1.36763192987786       -2.97424266143048        0.37321837853774
