25
 energy: 176.855890362676 xtb: 6.6.1 (8d0f1dd)
C            2.62844082294174        1.56596134236347        0.90308983058797
N            1.76370956922305        0.64909035385834        0.81837976989140
C            4.00819964640283       -2.16389702966665       -1.30616017626310
N            1.13849541127707       -2.01063550865415        0.40622450245038
C           -0.32393364713734       -0.41711856480556        0.14358444776444
C            0.51432197796934        0.67406737675913        0.40706182137057
C           -0.26971098777148        1.89147008116447        0.29784190207134
O            0.09692640638433        3.03437876300299        0.44658838986647
N           -1.56755471138686        1.50694453498965       -0.02008163065549
C           -2.65721148151029        2.42093213222783       -0.21653926193124
C           -1.69139489177920        0.15567383631312       -0.11202235022449
O           -2.73032621569583       -0.42802897834415       -0.36013884179539
N           -0.08401615017584       -1.74740538194954        0.18443647192705
C           -1.08647424432959       -2.78439620535339        0.00157764576981
H            3.56786469688587        1.28429213418754        1.34571125438098
H            4.59814724488618       -1.25218019440841       -1.62049925100565
H            2.48834874179079        2.56368132567673        0.48690327351391
H            4.66572649437822       -3.06054619717481       -1.27516144656863
H           -2.24091968619510        3.41729529401911       -0.35313022072696
H           -3.22806326141084        2.13078115380385       -1.09458346718815
H           -3.33133336577370        2.43226571434783        0.64031865465983
H           -1.23764588087319       -3.26293982013186        0.97231396580194
H           -0.66235634428433       -3.49355387060804       -0.69525165324243
H           -2.02741472804143       -2.37339247026363       -0.36271728458058
H            1.37531210966114       -3.00165032610193        0.37485684956312
