25
 energy: 175.644221700689 xtb: 6.6.1 (8d0f1dd)
C            2.66785115797804        1.52018306780964        0.80842405738137
N            1.77215147107007        0.62804386148645        0.82507975035814
C            4.09588106333333       -2.10703993218040       -1.28636195835088
N            1.17195811145747       -2.04129252086774        0.36582029751326
C           -0.34392235905953       -0.41680035929424        0.15484397155183
C            0.50350321262892        0.68087904517913        0.41935234472215
C           -0.28566437525142        1.91963682779943        0.27969710128704
O            0.10975403206844        3.06079075894447        0.37504775298842
N           -1.58274133011718        1.52791398200879       -0.02170978935585
C           -2.67407009740482        2.45066646837679       -0.20522118054665
C           -1.69033065015365        0.15108427786153       -0.10339576032952
O           -2.71739251096278       -0.43836888374534       -0.38093912657317
N           -0.04293758253226       -1.74260692895463        0.16477871999448
C           -1.06359408415124       -2.76519677084585       -0.00225707934743
H            3.62837621997181        1.26495128152124        1.23595675136093
H            4.57985334160732       -1.17979127545486       -1.62900922751816
H            2.55245244269789        2.51106470269475        0.39250586748221
H            4.67049566748848       -3.01269265361520       -1.30322408894533
H           -2.25697628067948        3.44978527267440       -0.32932450678179
H           -3.23971205043300        2.15800835598936       -1.08932211481048
H           -3.33743814363687        2.43741643706811        0.66335666486438
H           -1.22528434741220       -3.25243679389733        0.96464470244116
H           -0.71455393127824       -3.51947140062874       -0.71812371487522
H           -1.99459886696671       -2.32573689813343       -0.34813908981543
H            1.39385587888750       -3.02838609239775        0.36422992006936
