25
 energy: 106.808735235613 xtb: 6.6.1 (8d0f1dd)
C            3.11883110873590        1.28107178879994        0.48613416751576
N            2.22124218695221        0.40061990706032        0.52357553745282
C            2.94193529130875       -1.50177740373122       -0.62356280562250
N            1.62475343998771       -1.79326700712907       -0.01745135480927
C            0.55186980860745       -0.88326188734509        0.14423795927043
C            0.90371716403032        0.43783714220425        0.25956818564394
C           -0.00066755253802        1.55772031703651        0.22724593986742
O            0.31680686107665        2.73603813162454        0.26756581141195
N           -1.37818724394928        1.15638040424138        0.05201276063803
C           -2.41395643267119        2.18247856086752       -0.13626723384491
C           -1.75473425484532       -0.15291212138338       -0.05965842811257
O           -2.91607662535597       -0.45338223256922       -0.29524683474958
N           -0.75814644332004       -1.23613661990200        0.12801016667299
C           -1.25289338384241       -2.60037538182817        0.01103242197462
H            3.92363896932697        1.12505512547025        1.17988433150423
H            3.83238724377251       -0.39619348877997       -0.71277140927494
H            2.93957892814979        2.28377079096957        0.17360290047922
H            3.64842900940891       -2.23691421557730       -0.90977082277677
H           -1.93627765991356        3.15909908328369       -0.22137987504106
H           -3.01423694764673        2.02150514917284       -1.03701686946964
H           -3.09024025435024        2.20017730076301        0.72030494512850
H           -1.16718606938504       -3.12080280145601        0.97548835054270
H           -0.75834734020717       -3.20725407025461       -0.76317220163184
H           -2.31101539826815       -2.50339196227811       -0.25833299768964
H            1.28249249481227       -2.78700526523642        0.13914106719572
