25
 energy: 174.317050380771 xtb: 6.6.1 (8d0f1dd)
C            2.64427080072590        1.51542926881639        0.83871019901366
N            1.78699152304123        0.58250182963589        0.74798671897319
C            4.08313795725499       -2.03898268314941       -1.13973996376546
N            1.19940654283203       -2.01950079819024        0.36276502079245
C           -0.37007694355801       -0.41166022248563        0.16659361398754
C            0.50471527435905        0.66783200076365        0.40947185610836
C           -0.27636989726786        1.91000345460859        0.30601521165627
O            0.11105841874671        3.05454860336256        0.40509565287761
N           -1.57016123469616        1.51868788719055       -0.00998267951644
C           -2.66237917116204        2.44142248820745       -0.20871063693569
C           -1.70383442026711        0.14803242215921       -0.10726963454329
O           -2.74762656404515       -0.41678130997482       -0.37401053784375
N           -0.02183853518784       -1.71868138402180        0.17748238190037
C           -1.04334519530861       -2.74905039471784        0.00947553710697
H            3.61114264541554        1.27076102839392        1.26431107404089
H            4.56824267563490       -1.17775481202700       -1.62914004130543
H            2.47563967430230        2.52885816838390        0.47333611685975
H            4.63340125323194       -2.98826330328224       -1.22182794154902
H           -2.24234625755842        3.43911393654028       -0.33259271718096
H           -3.22287577942904        2.15101388995223       -1.09462749147703
H           -3.32608727680288        2.42786391586367        0.65713367333362
H           -1.22415611827971       -3.23708614419696        0.96946497888943
H           -0.68918418881915       -3.50013669943064       -0.69727330520400
H           -1.98020346310461       -2.32023397854505       -0.34425899750764
H            1.39010458943293       -3.01969670752062        0.37129845798593
