25
 energy: 148.004546649687 xtb: 6.6.1 (8d0f1dd)
C            2.91186472450479        1.46141883434125        0.65591376482312
N            2.09737401547391        0.52149068887519        0.73654142994085
C            3.17670352492180       -1.75870364561968       -1.05254255965384
N            1.54437138360855       -1.77367989202691        0.15942187137823
C            0.48784789310859       -0.81762748247952        0.17214691998807
C            0.79389922947211        0.52490507616578        0.37428802700538
C           -0.11093094107569        1.65384396669385        0.32684337562151
O            0.19175629852166        2.82087895099929        0.46053886218907
N           -1.46358060578706        1.24979703484583        0.06993022368140
C           -2.54219332511686        2.24269163349676       -0.18317198797551
C           -1.76546261710184       -0.08070323640341       -0.07902078202991
O           -2.86902631903835       -0.46036876520581       -0.38410558157355
N           -0.73007971747898       -1.28256302404508        0.13598507316946
C           -1.15608668214707       -2.63480245191952        0.04724700248629
H            3.76750047970695        1.27142690259531        1.23703450626689
H            3.83706739264234       -0.93216420416289       -0.90553569575097
H            2.69766227265922        2.44713098028129        0.31124421704598
H            3.76519447476597       -2.64421396242344       -1.34918139368313
H           -2.12380600217396        3.24360411636028       -0.32717720153680
H           -3.14617463742197        1.99184745227374       -1.06581747256924
H           -3.23442362946733        2.29666345998242        0.65859942520540
H           -1.22119312572395       -3.10913606272988        1.03684548104306
H           -0.52498751966071       -3.24907188890745       -0.60132669033687
H           -2.16026149893927       -2.54173468668270       -0.37770558926418
H            1.29961322936659       -2.75704826027631        0.27267263861232
