25
 energy: 118.653258613342 xtb: 6.6.1 (8d0f1dd)
C            2.95934673140586        1.42868462456953        0.61888975888185
N            2.14610625200275        0.48619386737482        0.70658223032042
C            3.07952240885763       -1.68123751322094       -0.89895699058515
N            1.61161088340366       -1.78011927789262        0.08390383983774
C            0.51569958255574       -0.81821696904340        0.15528747342361
C            0.83082116841136        0.50848253584578        0.36501766981581
C           -0.08105534630399        1.63295779556964        0.31110544783801
O            0.22072981850663        2.80401734234303        0.42413856300368
N           -1.44074555775540        1.22715709107195        0.07588788926060
C           -2.51522550288808        2.22307263322161       -0.17417592048290
C           -1.75647238617537       -0.09618927980523       -0.06997789596683
O           -2.87368865562724       -0.46243457479254       -0.34866248592912
N           -0.71821114982302       -1.27433755283190        0.13090770716677
C           -1.17086808504850       -2.62221345464323        0.03832069882175
H            3.81272822498656        1.24914543995798        1.21205493406568
H            3.79341383078940       -0.84311585077027       -0.84429858767931
H            2.74655463260187        2.42019672936586        0.28827092606109
H            3.62110202662971       -2.53387651978125       -1.34197290569694
H           -2.08696167811602        3.22055964002915       -0.30752657080607
H           -3.11484194047803        1.98783461722313       -1.06274975640908
H           -3.20711498709548        2.27155467629126        0.66872398817585
H           -1.22189637454843       -3.09875984755357        1.02698103349823
H           -0.56832848147764       -3.23373168988245       -0.63603955104086
H           -2.18402953515282       -2.52445481400664       -0.35903406505517
H            1.30726228124960       -2.75408525752886        0.27846421880210
