25
 energy: -4.812889689204 xtb: 6.6.1 (8d0f1dd)
C            3.28197612034200        1.15241127039126        0.11470708861519
N            2.31864979615432        0.10282939299086        0.08448239662904
C            2.61821864425725       -1.25417147114837       -0.04445614124992
N            1.41207643724884       -1.92952800993881        0.02617384680808
C            0.40799622083508       -1.03447723456835        0.03977772284921
C            0.92891517349044        0.24867670620071        0.05878486157324
C            0.10824913578850        1.40719051914996        0.03181972579254
O            0.47411535009030        2.58557257004032        0.02826794038014
N           -1.28170982568119        1.06453497095354       -0.02113647966959
C           -2.24642589040335        2.15470318842370       -0.06387069486930
C           -1.81822228791314       -0.18476509252360       -0.04719096356292
O           -3.01454676036442       -0.39030862531353       -0.10119255725519
N           -0.92722965289218       -1.27993504860640        0.01148173026836
C           -1.44189019153941       -2.63277407220310       -0.04676343108348
H            3.76608149329098        1.20739999748640        1.09214288876597
H            4.01041707916741        0.90717838947657       -0.67106188587397
H            2.75225191612214        2.09794285240730       -0.04859412506546
H            3.58679136483661       -1.70279901070421       -0.08181986056369
H           -1.70060838878723        3.09534490833815       -0.05593797894644
H           -2.85229013398701        2.08726355757258       -0.96796894946714
H           -2.90780123360283        2.09688905215958        0.80095810744158
H           -1.16730391238399       -3.18846651301818        0.85348883563004
H           -1.08785522351012       -3.17675068590825       -0.92878258046787
H           -2.52554128985208       -2.54546187626837       -0.09900879914338
H            1.33792570694742       -2.93315457085390        0.00667401558504
