25
 energy: -42.542400515949 xtb: 6.6.1 (8d0f1dd)
C            3.21724650279806        1.18332957281708        0.08778849917246
N            2.27646051253406        0.09213771735764        0.05798301302609
C            2.55461090934520       -1.22375916486914        0.08134657010720
N            1.45823273930051       -1.97173470290561        0.02638937619155
C            0.40977620582474       -1.10109748040354       -0.01627984701475
C            0.90228954873423        0.19982183100566        0.01412950038221
C            0.08033946552032        1.38322250889533        0.00049418658846
O            0.47893164545450        2.53602311682873        0.00050202761128
N           -1.28513551577026        1.08187419765446       -0.03746523573447
C           -2.23943864683218        2.18770599969654       -0.05678940879623
C           -1.82673641096439       -0.18889097278331       -0.05751365690187
O           -3.02593755397578       -0.35899580394683       -0.08251840230253
N           -0.94713985584028       -1.27545701039276       -0.05342374187419
C           -1.50592788613917       -2.61024332901402       -0.06430752081645
H            3.77345350603059        1.17633420680325        1.02611470485075
H            3.93263019466089        1.09031468815645       -0.73123464082532
H            2.66906274173457        2.12296970977394        0.00184452394539
H            3.56171655610807       -1.60622663705740        0.05853635544344
H           -1.67807700276354        3.12132475240028       -0.03808570377717
H           -2.85006120056786        2.13768350072655       -0.95756924468726
H           -2.89936202308749        2.12534621447823        0.80889225548740
H           -1.18113612822849       -3.15231561716769        0.82118109945120
H           -1.17439853968365       -3.13471256032224       -0.95925902901534
H           -2.58854682107315       -2.51575318465654       -0.06547866888213
H            1.96658451777425       -3.56887002203028       -0.02856178883513
