25
 energy: 0.000000000000 xtb: 6.6.1 (8d0f1dd)
C            3.23720163006194        1.16630919979326        0.08434469647475
N            2.29877817382611        0.07527477071623        0.03981603040599
C            2.58028210190900       -1.21425402444508        0.03006176031096
N            1.43813958087363       -1.93419271955128        0.00098261760884
C            0.39035688448383       -1.05887472636071       -0.00790371836672
C            0.93510056364412        0.21347819449412        0.01709077491437
C            0.09450143893243        1.40504303904423       -0.00410947031874
O            0.49712751527797        2.54126714362870       -0.00342325688240
N           -1.25076640035757        1.06271879480407       -0.03085478223738
C           -2.21907211982101        2.15522099834493       -0.05001256985998
C           -1.81739487048744       -0.20012725993278       -0.04692818574614
O           -2.99983886758376       -0.37846417018721       -0.07008878229737
N           -0.92618586207120       -1.30210215599479       -0.03682761578324
C           -1.46982264913417       -2.64643102187190       -0.06029820460571
H            3.71247264356769        1.21471455160235        1.06488849150277
H            4.00791497605742        1.03430808813993       -0.67357694370751
H            2.69910007168542        2.09770118228144       -0.09130154882931
H            3.56654120610678       -1.63682992603973        0.04233140067262
H           -1.67107961066214        3.09322851271934       -0.02552706933167
H           -2.82428953597071        2.09428624779827       -0.95318082946668
H           -2.87644029173232        2.07745725625962        0.81450067533302
H           -1.17061996399332       -3.19584890659852        0.83242232437030
H           -1.14560257411436       -3.17511610292205       -0.95688275822323
H           -2.55549792440841       -2.55659984320617       -0.07459039797972
H            1.38130855184625       -2.94313852034425       -0.01389874181052
25
 energy: -2.710683212336 xtb: 6.6.1 (8d0f1dd)
C            3.23150704019645        1.17853962689496        0.08599755496845
N            2.29667540325073        0.09211205087077        0.03913256873461
C            2.59854275944499       -1.23466504972700        0.03230503364336
N            1.45273496713152       -1.98319928742233        0.00259673661272
C            0.40305709043954       -1.08419170189997       -0.00795646451378
C            0.92110579528020        0.20967961932040        0.01629973664904
C            0.09562409010413        1.39531320371645       -0.00490306965975
O            0.49438961458210        2.56136393621627       -0.00308216160625
N           -1.26731488613030        1.06073052305440       -0.03229844673736
C           -2.22778219143648        2.16248410578242       -0.05177647576341
C           -1.82451433663874       -0.19294580545126       -0.04850408214083
O           -3.02184066556791       -0.37229522233863       -0.07259249242963
N           -0.93470681889066       -1.30128968908585       -0.03740985882624
C           -1.48242067463965       -2.63388376834658       -0.06036374985066
H            3.72558492769900        1.21338858239684        1.06092152993511
H            3.99017574787019        1.04997785682481       -0.68775201369366
H            2.69180440321377        2.11090902086364       -0.07238147090926
H            3.57921977532621       -1.64395396755836        0.04807129097851
H           -1.67090067962281        3.09725909069560       -0.02817848077962
H           -2.83659814366418        2.11354524570072       -0.95463401878497
H           -2.88824508733100        2.09815456034222        0.81285199021227
H           -1.17123401354550       -3.18094194882522        0.83066137137289
H           -1.15280045584474       -3.15833785728791       -0.95837520099736
H           -2.56722451758610       -2.53646661006301       -0.07057210805427
H            1.47737552429542       -3.03225791250134       -0.01102382221261
25
 energy: 3.873086507263 xtb: 6.6.1 (8d0f1dd)
C            3.22197567570739        1.18603399960897        0.08720525298619
N            2.28892140036893        0.10340116246013        0.03818179865109
C            2.61115672473894       -1.24912337285235        0.03699701056745
N            1.46978067491255       -2.03550829411536        0.00593553332178
C            0.41515126693808       -1.12001966293950       -0.00780793705099
C            0.90179969385752        0.19438462424875        0.01499596086817
C            0.09603200277946        1.37221921385423       -0.00587020376768
O            0.48615336273869        2.55458217124805       -0.00182581212174
N           -1.28987509334242        1.06356628545281       -0.03494400528231
C           -2.23762208057303        2.17780239289532       -0.05489382252223
C           -1.82884075192278       -0.18067673559394       -0.05120697240248
O           -3.03247923171611       -0.36598645637355       -0.07675443057982
N           -0.94470698514415       -1.29512901789855       -0.03816170340344
C           -1.50163477733558       -2.61585437277320       -0.06045559569147
H            3.74658545611719        1.20384076740261        1.04994318336119
H            3.96144337632565        1.07616767515107       -0.71151754102946
H            2.67954192028712        2.12289750819570       -0.03850567529233
H            3.59179066518918       -1.63901063766570        0.05888694441071
H           -1.66881044110268        3.10713315073350       -0.03273835162208
H           -2.85103411387868        2.14128845788560       -0.95662643413693
H           -2.90160813864234        2.12844458231906        0.80948961873674
H           -1.17794499356191       -3.16381502633304        0.82639355583266
H           -1.17129248536558       -3.13795758434657       -0.96031954318344
H           -2.58545610783701       -2.51193994629970       -0.06359850479676
H            1.63318764839774       -3.12771228209229       -0.00576842970555
25
 energy: 8.974936322406 xtb: 6.6.1 (8d0f1dd)
C            3.21514009919004        1.18739752419587        0.08704622064171
N            2.28597001526604        0.10163334353413        0.03903326136447
C            2.61422397840422       -1.25316608251403        0.04085821732843
N            1.48066855180649       -2.05663701613223        0.00886525970207
C            0.42104816590890       -1.13984650773716       -0.00731840315511
C            0.89594284677552        0.18076867214694        0.01512681605548
C            0.09627367191815        1.35972430113117       -0.00579981017806
O            0.48389217541196        2.54110914064033       -0.00023629398161
N           -1.29990046422664        1.06917037181069       -0.03713979324637
C           -2.24160120797485        2.18826033377601       -0.05795807732773
C           -1.82980246879524       -0.17564507080657       -0.05342518961507
O           -3.03223411909825       -0.36842851932733       -0.08043392246581
N           -0.94608499512995       -1.29114233588944       -0.03849590273075
C           -1.51381247983936       -2.60748679634224       -0.06045633332183
H            3.76253135440387        1.19128209799136        1.03781346901673
H            3.93673262514914        1.09968181338417       -0.73211014967806
H            2.66712316153433        2.12677874056861       -0.00830228670708
H            3.60027968278062       -1.63187238688584        0.06855200876067
H           -1.66781565436370        3.11446096225336       -0.03708680208754
H           -2.85719232228618        2.15632489070097       -0.95865938871172
H           -2.90682621087396        2.14589925713087        0.80618085393767
H           -1.18597503601553       -3.15771768142360        0.82316596612729
H           -1.19005166720342       -3.12881927140545       -0.96301024637217
H           -2.59725666334451       -2.49847575885073       -0.05716744715403
H            1.72094162853850       -3.16422541977785       -0.00200813005430
25
 energy: 10.180852478409 xtb: 6.6.1 (8d0f1dd)
C            3.21236573855076        1.18662858709148        0.08662330164619
N            2.28629223447723        0.09718446437316        0.04070604782658
C            2.61273088961101       -1.25297380945308        0.04342985486103
N            1.48385100359342       -2.05982261151072        0.01061836040812
C            0.42228620671448       -1.14551705685237       -0.00711119736305
C            0.89673403125661        0.17463143006394        0.01509046644438
C            0.09679983954878        1.35664310328373       -0.00567614403252
O            0.48490827283595        2.53395168974879        0.00152889537542
N           -1.30139729102070        1.07265514379614       -0.03860085136937
C           -2.24182573647483        2.19168990307566       -0.05976483832177
C           -1.82999611156371       -0.17456968015659       -0.05504702622233
O           -3.03022270896367       -0.37124282711846       -0.08275347559154
N           -0.94476378620384       -1.28913981067254       -0.03876130522419
C           -1.51800175126683       -2.60552872681213       -0.06040350150450
H            3.77222891108175        1.18218611334861        1.02890683441873
H            3.92187584899374        1.11341625150790       -0.74385499614314
H            2.65987373555447        2.12540695176905        0.00922310693991
H            3.60204063392086       -1.62742170634263        0.07530340253805
H           -1.66775820359599        3.11730123335492       -0.03972850665491
H           -2.85792048361679        2.15968096794368       -0.96004500675370
H           -2.90677495349664        2.15072452260164        0.80458297385628
H           -1.18890968784152       -3.15733585743496        0.82127889677184
H           -1.20006444427132       -3.12633830526102       -0.96503385404158
H           -2.60121010016604       -2.49445909510227       -0.05301828618357
H            1.74907258027895       -3.16872227306987       -0.00045925553310
25
 energy: 9.998588298758 xtb: 6.6.1 (8d0f1dd)
C            3.21147182410599        1.18586563362235        0.08624800856682
N            2.28721526606280        0.09396773413173        0.04255340518223
C            2.61052402467646       -1.25208536512452        0.04536458212787
N            1.48361765397271       -2.05843517202840        0.01177756837550
C            0.42168264545511       -1.14621604631794       -0.00727776513539
C            0.89829134226231        0.17256910722356        0.01450455154008
C            0.09728452220050        1.35634922661412       -0.00563846626389
O            0.48636035076238        2.53138287803311        0.00332866506600
N           -1.30037200645689        1.07363753174510       -0.03967843687149
C           -2.24082528571337        2.19186208016124       -0.06075978592286
C           -1.83033434321361       -0.17455728635103       -0.05623879174802
O           -3.02923569670921       -0.37211666145899       -0.08432773608722
N           -0.94393737012153       -1.28831984846846       -0.03916081463171
C           -1.51879508994334       -2.60561965097184       -0.06043531434551
H            3.77917831204789        1.17603969157275        1.02243550661632
H            3.91261178609147        1.12085581006659       -0.75074755405952
H            2.65621065985373        2.12312550549051        0.01937573358481
H            3.60104612310699       -1.62520958205956        0.08039604282325
H           -1.66761811279398        3.11786208866609       -0.04124196899814
H           -2.85721746282170        2.15910557031674       -0.96080777925079
H           -2.90532088669819        2.15094054602533        0.80394020144629
H           -1.18821559473616       -3.15791309527488        0.82003952147299
H           -1.20404610958170       -3.12559853251490       -0.96640761987929
H           -2.60182255294583       -2.49418078541765       -0.05042133499151
H            1.75446066907334       -3.16428277550907        0.00021347753043
25
 energy: 9.654221699109 xtb: 6.6.1 (8d0f1dd)
C            3.21146013761425        1.18575038133099        0.08601355579518
N            2.28767140960153        0.09311321933275        0.04390055560017
C            2.60957554723779       -1.25188674018704        0.04638471895591
N            1.48271091632110       -2.05761338011136        0.01236764844822
C            0.42106952296050       -1.14577671556308       -0.00758866056715
C            0.89879546921582        0.17265531786406        0.01386834986320
C            0.09747968725529        1.35650096421881       -0.00557427289174
O            0.48701038310404        2.53149768548554        0.00443158049922
N           -1.29954107960058        1.07325784044369       -0.04028769426521
C           -2.24010704050167        2.19126785076866       -0.06116022340247
C           -1.83060685198942       -0.17463046333230       -0.05681891344734
O           -3.02932904165473       -0.37176791965776       -0.08505615304842
N           -0.94397237242350       -1.28826863944972       -0.03953183400700
C           -1.51848769772577       -2.60601044756211       -0.06052137655166
H            3.78312280056927        1.17323170295488        1.01920117499877
H            3.90848356846446        1.12358765764993       -0.75405938004039
H            2.65507439903798        2.12216293167381        0.02388151705719
H            3.60009064760741       -1.62503978904511        0.08317131604076
H           -1.66732793373045        3.11760041892114       -0.04183040520571
H           -2.85675053601116        2.15824174637552       -0.96107008278065
H           -2.90439464845813        2.15030693144225        0.80375840403033
H           -1.18667565657300       -3.15821616039548        0.81944827476488
H           -1.20452837393762       -3.12550368426808       -0.96696580425990
H           -2.60144807290827       -2.49482468602270       -0.04937512432601
H            1.75283948446100       -3.16060742069524        0.00044672488708
25
 energy: 9.377207534752 xtb: 6.6.1 (8d0f1dd)
C            3.21157684489866        1.18584122403904        0.08577274649077
N            2.28788955016404        0.09292840226798        0.04544368385671
C            2.60916679685499       -1.25206958447783        0.04722019124823
N            1.48192816152295       -2.05752475901170        0.01284700397548
C            0.42071043433017       -1.14541869957727       -0.00800536525989
C            0.89887005044933        0.17309578931771        0.01318810761861
C            0.09755876038982        1.35651765678947       -0.00543855223563
O            0.48726150891843        2.53199399637501        0.00537224581132
N           -1.29907810917005        1.07273026501178       -0.04085831241556
C           -2.23965439378992        2.19081226784442       -0.06147223172132
C           -1.83078050399257       -0.17462991421195       -0.05726952677645
O           -3.02961539108220       -0.37132637015566       -0.08553084886082
N           -0.94418264509648       -1.28838163475020       -0.03996730643304
C           -1.51814988118778       -2.60629230275805       -0.06064098102328
H            3.78672521839784        1.17113867646683        1.01642606486017
H            3.90516877833636        1.12561741413127       -0.75698684355993
H            2.65445841822646        2.12171919780296        0.02760425718129
H            3.59944770240133       -1.62547262751322        0.08573279317100
H           -1.66696852875091        3.11728361032730       -0.04227486704497
H           -2.85654997576438        2.15770024638589       -0.96123370876957
H           -2.90377212269536        2.14989677780640        0.80363083048719
H           -1.18528801780089       -3.15836524533719        0.81899208312516
H           -1.20455474323419       -3.12556011979448       -0.96733418346078
H           -2.60108497422343       -2.49538676885179       -0.04869967805718
H            1.75113172983392       -3.15781889595471        0.00051629393974
25
 energy: 9.279497848083 xtb: 6.6.1 (8d0f1dd)
C            3.21169497067480        1.18596603135736        0.08560032445625
N            2.28780616316221        0.09318836562749        0.04688717959303
C            2.60932098978905       -1.25240666489458        0.04751060751060
N            1.48169338127565       -2.05801375478281        0.01302858363534
C            0.42077669978528       -1.14534668121341       -0.00840958728027
C            0.89866731682487        0.17342791402880        0.01274975244205
C            0.09751740911449        1.35640118234169       -0.00528128618156
O            0.48706863707934        2.53227428257654        0.00581492867140
N           -1.29915795033723        1.07250217253182       -0.04122727007555
C           -2.23966290834865        2.19079729458417       -0.06161154914334
C           -1.83074420099541       -0.17460143427790       -0.05744885645485
O           -3.02975142278282       -0.37125841861660       -0.08554108743962
N           -0.94430500033667       -1.28855276830306       -0.04035426162785
C           -1.51803961078618       -2.60633721090954       -0.06075902989551
H            3.78881356189111        1.17036986513482        1.01485643934079
H            3.90346244107960        1.12646420539445       -0.75865434535734
H            2.65446779001421        2.12178342594498        0.02944063448825
H            3.59936868473213       -1.62605279691432        0.08743244325650
H           -1.66673729470264        3.11713229638390       -0.04247050953808
H           -2.85668874250007        2.15773437075667       -0.96126549188794
H           -2.90364796932631        2.14994587280187        0.80359283656880
H           -1.18487751828216       -3.15835216524856        0.81882886116259
H           -1.20454341633140       -3.12576455986461       -0.96744289669454
H           -2.60099185925338       -2.49550606410625       -0.04859245045296
H            1.75070451649631       -3.15676615816086        0.00034992705106
