25
 energy: -42.172364531848 gnorm: 0.008810897375 xtb: 6.6.1 (8d0f1dd)
C            3.47453256835320        1.03671862719511       -0.02675042744983
N            2.41714003992236        0.06318986523114       -0.04864360180713
C            2.56298147097124       -1.27397293872789       -0.10249123553248
N            1.33710073519127       -1.84623515538628       -0.07587004589496
C            0.37728935386024       -0.86008378132648        0.00051300197912
C            1.06777490316053        0.34292491354716        0.02150660303448
C           -0.63041631795914        1.95864469617083        0.17133121437483
O            0.66055878498189        1.60111073031987        0.08803258673327
N           -1.75858120176194        1.22069102637557       -0.01431691646260
C           -2.90608284155257        1.92812921630381       -0.20162869783588
C           -1.99958577878150       -0.19407120823474        0.10785543227168
O           -3.14628811860222       -0.57865409163470        0.21329704881717
N           -0.96667503656815       -1.11609727905037        0.05967140069916
C           -1.35636100861659       -2.51962635886985        0.10827043187726
H            3.87631973235044        1.14389229828157        0.98314010799793
H            4.27522118877502        0.72385461977089       -0.69474550092126
H            3.08202209506935        1.99800021702413       -0.35228286095151
H            3.49257534118660       -1.79730150999085       -0.16247657358433
H           -0.74666381984088        3.02382145610051        0.20271761942880
H           -2.85958879165248        2.99489128190034       -0.27186533253595
H           -3.83848396074177        1.40291488748616       -0.23238092552571
H           -0.92431292618056       -3.00456906598843        0.98445002211512
H           -1.04899067893737       -3.02953040905107       -0.80574025387513
H           -2.44152137465595       -2.56289993959450        0.18417507110120
H            1.16046715612878       -2.83750355625203       -0.10459655015393
