25
 energy: -42.486651511037 xtb: 6.6.1 (8d0f1dd)
C            3.43576629573565        0.96828371139535        0.18286729173735
N            2.41773132042599       -0.03495303480805       -0.00323382981296
C            2.71606112308856       -1.32307017006553       -0.11734880175744
N            1.57446790759312       -2.05499488099306       -0.16102035995399
C            0.52130218001085       -1.17850423220516       -0.06097247849036
C            1.05361650936191        0.09554930847974        0.03412443147241
C            0.13797655274655        1.26978661405341        0.18562345552613
O            0.60776320339027        2.38002309915655        0.40291059100368
N           -1.17958504692350        0.98711558987255        0.12430705363796
C           -3.09325969500343        2.94795419388662       -0.37716802997847
C           -1.72010109009538       -0.20236159504778        0.17829678880038
O           -2.86118121758946       -0.53301005413452        0.38569848535416
N           -0.77931288988121       -1.39958338570983        0.00265217049736
C           -1.25663103763432       -2.74836714648242        0.02834127238446
H            3.96404747640389        0.74608924787366        1.11988139593367
H            4.14971218871821        0.89882445166841       -0.63891377332269
H            3.00995421800668        1.96121357799746        0.23062224667573
H            3.68818236862463       -1.69536793271605       -0.31536921891953
H           -2.39273806060161        3.73134897831967       -0.37101940615109
H           -3.51197604829786        2.65401387301110       -1.30194181727188
H           -3.62991917868469        2.73112414285727        0.49929404819583
H           -0.80573699233658       -3.26743880391753        0.87859091632217
H           -0.94465596860112       -3.23279434792479       -0.89643942549865
H           -2.34639691594456       -2.76724554520535        0.08531371822964
H            1.55044504395105       -3.05521212620832       -0.24153933726486
