25
 energy: 38.493202915463 xtb: 6.6.1 (8d0f1dd)
C            3.47988011530619        1.58567501442542        0.09237646032205
N            2.65040376632030        0.40970461014033        0.05309308599356
C            3.05987078865840       -0.85067181670880        0.05103217547764
N            1.99378101575984       -1.67892024773388        0.02075843538530
C            0.84427575123594       -0.91393075039655        0.00348119905649
C            1.28229056007533        0.41730376017708        0.02521151926321
C            0.31840949111705        1.48955403376330        0.00137295328818
O            0.58909045650738        2.68344193632652        0.00362372811306
N           -0.96264244514973        0.99313754307668       -0.02769027217885
C           -2.06303027395298        1.93932872703590       -0.05054820101938
C           -1.35053943098066       -0.38518633476968       -0.04095448577464
O           -2.53409868764381       -0.62832888551197       -0.06528700022575
N           -0.38711613936946       -1.33887348416288       -0.02748711602578
C           -3.32067353155606       -3.52593067071851       -0.11011039288093
H            3.98673331544155        1.66094983425835        1.05553421953133
H            4.22743769539055        1.55025185686029       -0.69998485830916
H            2.83660461637921        2.45602655474758       -0.04132600561590
H            4.08313929574979       -1.16700647502216        0.06887051060864
H           -1.64457491296078        2.94276645644227       -0.02974942023325
H           -2.65840133036065        1.79194762890488       -0.95203283950544
H           -2.70784080062347        1.77503945011564        0.81314593024584
H           -3.10257850238779       -4.02332636352554        0.80995457476256
H           -3.06877963387551       -3.99521381846500       -1.03632542362457
H           -3.65609890716759       -2.51281686446276       -0.10093055202902
H            2.01667203305975       -2.68589290605227        0.01100568756938
