25
 energy: 22.950780289861 xtb: 6.6.1 (8d0f1dd)
C            3.26022354042636        1.33965974326037        0.09725513898424
N            2.41099737896655        0.17818577196729        0.02726302017111
C            2.77379275445954       -1.15399646509495        0.04851601000961
N            1.63653745663833       -1.92503201153276        0.01997210154150
C            0.51090524833780       -1.17321100862288       -0.00711178092235
C            1.00542555535568        0.17202953937452        0.01190112865759
C            0.20597428447664        1.31783819098651       -0.01490911038059
O            0.54725854878459        2.50731132636244       -0.01326318985485
N           -1.16767761888169        0.94597875061625       -0.03622882110612
C           -2.13997392879654        2.04125376458306       -0.05028469926829
C           -1.68379333910410       -0.31047530210165       -0.04963284963713
O           -2.90220874477048       -0.38754777081970       -0.06967755287793
N           -0.89021867279791       -1.49990903626139       -0.04281604337181
C           -1.94538286264587       -2.71683357588898       -0.07505422899900
H            3.79997435665135        1.38554045362193        1.05091031355390
H            4.01208836726015        1.31886362583973       -0.70156153295552
H            2.64199922352415        2.24436117984496        0.01363660755133
H            3.77571170988405       -1.51839092742706        0.05537948745547
H           -1.57182864989498        2.97000987787263       -0.02863358472932
H           -2.74515029676419        1.99246492523238       -0.95300893057758
H           -2.78490750929153        1.97904124022735        0.82264100889085
H           -1.86843555727705       -3.34884795776607        0.80737830457603
H           -1.83582078890958       -3.32840041593176       -0.96604376846771
H           -2.90618782547854       -2.19816832482380       -0.08647235589367
H            1.67001519247488       -2.93001728603884        0.01642053864572
