25
 energy: 10.065184424118 xtb: 6.6.1 (8d0f1dd)
C            3.26055659056308        1.29506253597068        0.09442698490284
N            2.38387668895733        0.15436774494836        0.01930350691287
C            2.73589675041962       -1.18585505527765        0.04140981240414
N            1.58512531139694       -1.93639555395926        0.01573777635409
C            0.47864122020132       -1.16319259029544       -0.00984107070906
C            0.98082402407994        0.16906850314442        0.00145216785524
C            0.17561145708548        1.32035497387979       -0.01541451626529
O            0.51610807361535        2.50869495344651       -0.01656386747554
N           -1.20280714879783        0.95960295792986       -0.03461892540881
C           -2.16796738685616        2.05993261775309       -0.04979234697278
C           -1.72000683667831       -0.29437153457500       -0.04923078436643
O           -2.93221138148921       -0.40778763529764       -0.07130334362142
N           -0.90580025430955       -1.47169799707902       -0.04017137466187
C           -1.83052289767370       -2.68769337152465       -0.07057632283448
H            3.78204165490241        1.33772026864505        1.05852857711174
H            4.02307005351106        1.24601326214932       -0.69229033433178
H            2.66789807902171        2.21404010898576       -0.01312294220809
H            3.73162641562104       -1.56827009802114        0.05322857709463
H           -1.60018534269632        2.99001969934087       -0.02695332638009
H           -2.77345272138407        2.01160630265972       -0.95324242543152
H           -2.81674162573706        1.99657585492305        0.82116579727037
H           -1.69754465834623       -3.31642516642589        0.81268579409792
H           -1.66830315735948       -3.29595012148105       -0.96229634610562
H           -2.83113421788201       -2.27323467893667       -0.08298181294304
H            1.59550194519252       -2.93992516147830        0.01093131009738
