25
 energy: 39.097745961193 xtb: 6.6.1 (8d0f1dd)
C            3.45862394443710        1.56386564140524        0.08973576863599
N            2.62838807039156        0.39042394083909        0.06020001288740
C            3.03662563435339       -0.87397402745821        0.04941156462407
N            1.96767661947065       -1.70167663884325        0.01638257300286
C            0.81859472269045       -0.93410422339668        0.00447789858552
C            1.25833843521422        0.39875712166905        0.03499732915135
C            0.30718012719610        1.49389941744871        0.00663753755008
O            0.61161007829744        2.68204217715653        0.00702695155131
N           -0.97232234100200        1.00254950353181       -0.02800532204250
C           -2.07397216831137        1.95072218900664       -0.05236934295627
C           -1.36681124079179       -0.40093908922588       -0.04119077177360
O           -2.55808002194574       -0.60056028192096       -0.06371177364658
N           -0.41663787934642       -1.36323553044817       -0.03081107184526
C           -3.23570142637140       -3.47662584071328       -0.10793398978415
H            3.95588939228231        1.64464410814343        1.05545152671090
H            4.20756921583851        1.51033339583133       -0.69877763889412
H            2.81583255403628        2.43148746109854       -0.05954790009130
H            4.05763252431846       -1.19733744825993        0.06706292933723
H           -1.65505640042786        2.95416311717096       -0.02899583532152
H           -2.67053999477574        1.80824627119784       -0.95427095077153
H           -2.72220117396163        1.78621990630553        0.80886156147415
H           -2.97958765012054       -3.95214274649915        0.81357809394178
H           -2.94848993285954       -3.91724701405551       -1.03744933787329
H           -3.72860454821902       -2.53198529971610       -0.09879339660371
H            2.00053418574956       -2.70994790600573        0.00676436529965
