25
 energy: 0.000000000000 xtb: 6.6.1 (8d0f1dd)
C            3.23720163006194        1.16630919979326        0.08434469647475
N            2.29877817382611        0.07527477071623        0.03981603040599
C            2.58028210190900       -1.21425402444508        0.03006176031096
N            1.43813958087363       -1.93419271955128        0.00098261760884
C            0.39035688448383       -1.05887472636071       -0.00790371836672
C            0.93510056364412        0.21347819449412        0.01709077491437
C            0.09450143893243        1.40504303904423       -0.00410947031874
O            0.49712751527797        2.54126714362870       -0.00342325688240
N           -1.25076640035757        1.06271879480407       -0.03085478223738
C           -2.21907211982101        2.15522099834493       -0.05001256985998
C           -1.81739487048744       -0.20012725993278       -0.04692818574614
O           -2.99983886758376       -0.37846417018721       -0.07008878229737
N           -0.92618586207120       -1.30210215599479       -0.03682761578324
C           -1.46982264913417       -2.64643102187190       -0.06029820460571
H            3.71247264356769        1.21471455160235        1.06488849150277
H            4.00791497605742        1.03430808813993       -0.67357694370751
H            2.69910007168542        2.09770118228144       -0.09130154882931
H            3.56654120610678       -1.63682992603973        0.04233140067262
H           -1.67107961066214        3.09322851271934       -0.02552706933167
H           -2.82428953597071        2.09428624779827       -0.95318082946668
H           -2.87644029173232        2.07745725625962        0.81450067533302
H           -1.17061996399332       -3.19584890659852        0.83242232437030
H           -1.14560257411436       -3.17511610292205       -0.95688275822323
H           -2.55549792440841       -2.55659984320617       -0.07459039797972
H            1.38130855184625       -2.94313852034425       -0.01389874181052
25
 energy: -3.450350840605 xtb: 6.6.1 (8d0f1dd)
C            3.23893032966041        1.18285452805461        0.08536006197150
N            2.32797469693588        0.08030326743820        0.03751473061486
C            2.63988095712500       -1.26007296071659        0.03165932111844
N            1.44183003709405       -1.93977573992467        0.00153983931436
C            0.40586901402666       -1.05270177603620       -0.00859474394713
C            0.94215480954647        0.22218406640092        0.01475132494121
C            0.09841203097915        1.39867792377402       -0.00510588515187
O            0.48674934688080        2.56740496476432       -0.00359653881123
N           -1.26724778865805        1.05779557684992       -0.03118589218208
C           -2.23749837086655        2.15065086752543       -0.04925787404135
C           -1.82641337465712       -0.19431455420530       -0.04804969547356
O           -3.02318304052555       -0.37910658679745       -0.07141347925251
N           -0.93087887582159       -1.29211716515003       -0.03765688721500
C           -1.47630868153242       -2.63157472037714       -0.06088098046407
H            3.71119337916419        1.23824323350976        1.06870667949338
H            4.00542081950732        1.05767233528274       -0.67846459269593
H            2.68111178685755        2.10362293166957       -0.09120020672170
H            3.65322801618799       -1.75793232845098        0.04740329088362
H           -1.68863435738033        3.08940732299841       -0.02454985631885
H           -2.84680699452778        2.09623006927366       -0.95173358307940
H           -2.89828455806397        2.07839773375072        0.81477615389508
H           -1.17439904025767       -3.18268630251354        0.83139890883121
H           -1.14943785871248       -3.16220941259919       -0.95689014119358
H           -2.56242506622733       -2.54155047852378       -0.07524426872788
H            1.36097745120157       -2.94037419382539       -0.01225178964023
25
 energy: 2.034605609561 xtb: 6.6.1 (8d0f1dd)
C            3.23795987158142        1.19588169735365        0.08530519755671
N            2.35605055212732        0.07271586407850        0.03333134560991
C            2.69366810081099       -1.30438994988487        0.03401116493801
N            1.44591303958987       -1.93995999299174        0.00316535496478
C            0.42216964247464       -1.04763283989121       -0.00923154237085
C            0.95357732895504        0.22757250409451        0.01189429474357
C            0.10661251880578        1.38856124012389       -0.00604400177899
O            0.46600638543789        2.57459451837029       -0.00385856680862
N           -1.27978221745736        1.05681977814067       -0.03150141969539
C           -2.25454961309868        2.14822456576095       -0.04799742979699
C           -1.82534631216841       -0.18750835659953       -0.04923350860359
O           -3.02568341373355       -0.38111874728125       -0.07321217462772
N           -0.92952386248052       -1.27926788087834       -0.03860772983049
C           -1.48110030385531       -2.61342797596766       -0.06181497097701
H            3.70949020436815        1.27204009850456        1.06917493464201
H            4.00592347691374        1.09627562393481       -0.68160870330277
H            2.65617091488667        2.10451230213496       -0.09074094858649
H            3.72075561071440       -1.88777155413985        0.05371750481331
H           -1.71230186211341        3.09117634244207       -0.02291483564837
H           -2.86966587595207        2.09519477834519       -0.94828567910616
H           -2.91977038953916        2.07561262279187        0.81430844522343
H           -1.18186240155567       -3.16720792358046        0.83046300755023
H           -1.15677095611620       -3.14694876043683       -0.95781921498458
H           -2.56745058651366       -2.51849352870065       -0.07628089757432
H            1.34172481585427       -2.93642582355150       -0.00918573020233
25
 energy: 5.677930188594 xtb: 6.6.1 (8d0f1dd)
C            3.23382664434853        1.20151563482699        0.08463200754381
N            2.36607557334913        0.06530710797596        0.03089129514562
C            2.71229915672514       -1.32339044621194        0.03535042331543
N            1.44985575094453       -1.94187199919500        0.00515702184215
C            0.42939172676663       -1.04912838308863       -0.00881797093336
C            0.95971378785215        0.22778312390971        0.01106184559966
C            0.11389922881483        1.38717385370364       -0.00615398735784
O            0.45797012855257        2.57505851051333       -0.00406109473664
N           -1.28130634441292        1.06035773391085       -0.03168402891686
C           -2.25983315333166        2.14856509631632       -0.04729542512283
C           -1.82125099674690       -0.18468518367392       -0.04992195215886
O           -3.02097684750064       -0.38269377031273       -0.07475917109828
N           -0.92545952459109       -1.27456679483657       -0.03880246892628
C           -1.48327502267952       -2.60570539796705       -0.06237796859673
H            3.70493155663671        1.28997580134001        1.06804050633449
H            4.00454188362499        1.12064890097567       -0.68225759191547
H            2.63852843701317        2.10238992949062       -0.09080567603649
H            3.74500721203411       -1.94412576542735        0.05515167879244
H           -1.72466800217048        3.09500840522948       -0.02189611341128
H           -2.87693241507146        2.09215851493599       -0.94657574943639
H           -2.92615638940322        2.07134031540497        0.81438601723157
H           -1.18831245941288       -3.16031622554778        0.83045589461725
H           -1.16271524182194       -3.13996002706322       -0.95896956492963
H           -2.56943253840715       -2.50367591834426       -0.07710130983259
H            1.33649251682359       -2.93813441469308       -0.00661272086556
25
 energy: 6.439319913383 xtb: 6.6.1 (8d0f1dd)
C            3.23131465103600        1.20279187038966        0.08440760664330
N            2.36701163415830        0.06326556089719        0.02991258715102
C            2.71411193617416       -1.32613589939138        0.03592127464507
N            1.45180217459585       -1.94237479483757        0.00604811686533
C            0.43042924408157       -1.05081269312272       -0.00840779475009
C            0.96091731168882        0.22725326519738        0.01098019752893
C            0.11718937246139        1.38851670818240       -0.00619454846897
O            0.45623187659215        2.57516674372529       -0.00414461414078
N           -1.28019839122201        1.06219620255755       -0.03174933523163
C           -2.25973212031685        2.14892557906787       -0.04713962953737
C           -1.81975827950164       -0.18419389818700       -0.05008293909579
O           -3.01888752883328       -0.38266017423961       -0.07533196600704
N           -0.92373401820892       -1.27406571477587       -0.03863473066557
C           -1.48399660720370       -2.60475515140293       -0.06245854542905
H            3.70186911135509        1.29303106621650        1.06761045509674
H            4.00252906285272        1.12654737927396       -0.68198397988404
H            2.63317173131636        2.10125846179063       -0.09096478099070
H            3.75009694274995       -1.95457650774367        0.05456082644977
H           -1.72693267582566        3.09632114526480       -0.02167121870773
H           -2.87688564667458        2.09106201875133       -0.94636213908016
H           -2.92588065518273        2.06993549272540        0.81462184817722
H           -1.19060876411246       -3.15944110255276        0.83047684185786
H           -1.16475453587893       -3.13891627184734       -0.95921586925516
H           -2.57006190713164       -2.50044492764581       -0.07732429976309
H            1.33697074896628       -2.93886575612128       -0.00583946726078
25
 energy: 6.661822518315 xtb: 6.6.1 (8d0f1dd)
C            3.23021652387436        1.20306526395061        0.08434443311492
N            2.36681030194320        0.06263894480516        0.02899954282394
C            2.71322807062013       -1.32574616526229        0.03652355053396
N            1.45286396719571       -1.94214190864749        0.00650330578916
C            0.43015866394873       -1.05182247495218       -0.00823569366315
C            0.96112020821646        0.22685330265278        0.01082230886936
C            0.11928904574277        1.38961866656123       -0.00633350682063
O            0.45514956405218        2.57568965631300       -0.00419306175162
N           -1.27936244096731        1.06269064794170       -0.03178184632914
C           -2.25910409134771        2.14881629997178       -0.04707333691485
C           -1.81944862059128       -0.18418452892868       -0.05012476067671
O           -3.01821995089348       -0.38235758038486       -0.07554554344075
N           -0.92310819807093       -1.27413139042869       -0.03847120363641
C           -1.48445431797854       -2.60492488907684       -0.06243424250106
H            3.70022688203642        1.29308258816263        1.06761774765655
H            4.00155832199022        1.12797941239940       -0.68164965591418
H            2.63157305352602        2.10067625105968       -0.09105273581276
H            3.75220870929330       -1.95646528101979        0.05397264390791
H           -1.72716840308317        3.09653778380472       -0.02160011297966
H           -2.87623358898172        2.09072450414598       -0.94631366641821
H           -2.92512934314222        2.06951439560696        0.81477577893559
H           -1.19149327841061       -3.15950904677864        0.83048022644871
H           -1.16556561658986       -3.13884163287935       -0.95925211989558
H           -2.57045826276246       -2.49994891352204       -0.07734302053538
H            1.33755746831602       -2.93878530332277       -0.00560113464273
25
 energy: 6.683979699883 xtb: 6.6.1 (8d0f1dd)
C            3.23027407307089        1.20292826750595        0.08436623174081
N            2.36666152632710        0.06267674038210        0.02831876581283
C            2.71221669919732       -1.32481160400668        0.03704059646375
N            1.45306128455505       -1.94177700296955        0.00663809389274
C            0.42967973982768       -1.05199365222838       -0.00827325371551
C            0.96094675834574        0.22680587757622        0.01064443350592
C            0.12009289296546        1.38990861579837       -0.00643723767836
O            0.45466342774918        2.57615911344002       -0.00420115243057
N           -1.27932096020954        1.06238659317121       -0.03178162741826
C           -2.25883765081723        2.14859624818179       -0.04706176354786
C           -1.81978720287189       -0.18426513065649       -0.05011071405456
O           -3.01847937948696       -0.38228219066155       -0.07553528982126
N           -0.92322261018520       -1.27423512086603       -0.03839078597669
C           -1.48459156931409       -2.60522566804850       -0.06239482462147
H            3.69999450575219        1.29236315310353        1.06781282901564
H            4.00171459335616        1.12752815127401       -0.68144760518999
H            2.63193860653475        2.10063046257353       -0.09104281340725
H            3.75302304679268       -1.95556676127504        0.05361955467544
H           -1.72681399959833        3.09630287799532       -0.02159276764928
H           -2.87598872410832        2.09081287152779       -0.94631845064399
H           -2.92487631531381        2.06961379616941        0.81481195663903
H           -1.19146783773078       -3.15973849252808        0.83048471036942
H           -1.16557628100860       -3.13900252718093       -0.95923339704898
H           -2.57056904933612       -2.50035053212708       -0.07728462650247
H            1.33747909344288       -2.93843548397888       -0.00559696626178
25
 energy: 6.692279180354 xtb: 6.6.1 (8d0f1dd)
C            3.23074490267821        1.20265709582634        0.08441863775572
N            2.36674684481004        0.06280460834082        0.02744773651564
C            2.71132930507554       -1.32393244521937        0.03782756868449
N            1.45295621083683       -1.94146685088536        0.00672900986965
C            0.42926159574721       -1.05182236343249       -0.00842852234923
C            0.96066051134702        0.22699302488836        0.01038079182539
C            0.12054020803870        1.38983541634349       -0.00655295228201
O            0.45440743462189        2.57655674982212       -0.00420287759734
N           -1.27979244742976        1.06185543623138       -0.03177538560135
C           -2.25888267682042        2.14843244873861       -0.04705527238420
C           -1.82034437186682       -0.18426819757727       -0.05008109083863
O           -3.01902496490463       -0.38249499482318       -0.07544375015586
N           -0.92356378749142       -1.27430766309815       -0.03832647487730
C           -1.48457102120263       -2.60546164334093       -0.06235756189644
H            3.70020514534295        1.29152259661076        1.06809992488957
H            4.00240022881950        1.12672479530245       -0.68124073263074
H            2.63285711684167        2.10076648951080       -0.09098713791473
H            3.75386146042857       -1.95428820252846        0.05319105558465
H           -1.72641105038242        3.09598677690832       -0.02157987349708
H           -2.87607786675793        2.09107810756450       -0.94632516922105
H           -2.92498460900288        2.06989648448354        0.81482147045458
H           -1.19115563083038       -3.15996313409060        0.83048925433716
H           -1.16533133263208       -3.13917045382402       -0.95921871723897
H           -2.57053390081063       -2.50084725611591       -0.07721088549868
H            1.33691736348008       -2.93805822346374       -0.00558514978594
