25
 energy: 40.522870050405 xtb: 6.6.1 (8d0f1dd)
C            2.94207245783761        2.48149705938072        0.51530466453990
N            2.40779664746342       -0.35741258660544       -0.33669906926861
C            2.55421535347124       -1.58786124004691        0.05194620460922
N            1.35625775917453       -2.26964392682456        0.15767315135265
C            0.38870162837135       -1.37158378434082       -0.16285727592291
C            1.04956337271635       -0.18826092574157       -0.47720741147351
C            0.26253775893843        0.99023679268253       -0.78905158786302
O            0.61117725776261        1.96815628533617       -1.38795029092127
N           -1.03161411667057        0.87703826977968       -0.23116423633791
C           -1.74231581301425        2.08967369437746        0.13132969399491
C           -1.69974816671371       -0.29388421442071       -0.01686965753188
O           -2.88174777206709       -0.30749623860829        0.25001901570563
N           -0.97494101140335       -1.49571187543967       -0.13098530282965
C           -1.81759188346872       -2.70073168452290       -0.17700784228385
H            3.90068666760718        2.46140606311444        0.95913557217596
H            2.85735262575924        2.60340572798444       -0.52494289313626
H            2.05710826379733        2.28466046281479        1.09373138145212
H            3.48293876954026       -2.05968944205917        0.29841889295795
H           -1.07289627609680        2.90930218679917       -0.05636780127087
H           -2.64433414952456        2.24684967868604       -0.42181923991399
H           -1.98253602075210        2.07089889599579        1.19812916710755
H           -1.82584985307540       -3.28512996324153        0.75933431705071
H           -1.58559647263548       -3.37306434962160       -1.00606854647016
H           -2.80833029499455       -2.28309972375529       -0.36349745556835
H            1.24087547101324       -3.24244711403885        0.37314463826760
