25
 energy: 8.462367545658 xtb: 6.6.1 (8d0f1dd)
C            3.09352879352178        1.39233325769743        0.09803250668108
N            2.41857698453003        0.06459616288423        0.06289094850685
C            2.67738986918718       -1.33255582570878        0.05885042886181
N            1.46782153616296       -2.03738814503338        0.03061003555065
C            0.44376932771091       -1.16429984224858       -0.00499792925769
C            1.00939573722352        0.09888088309364       -0.00266956022973
C            0.19200040037101        1.22608529038905       -0.11367339146863
O            0.56835749858239        2.37954844191808       -0.33129759552601
N           -1.20824159862727        0.96351393608578       -0.04088255223808
C           -2.08484465646455        2.12133746749529       -0.03520652086471
C           -1.78585318440944       -0.25867147245564       -0.05676324559096
O           -2.98630143407050       -0.42401497674037       -0.07503058616839
N           -0.91692047860043       -1.37002488449865       -0.04931362740055
C           -1.56436295105910       -2.66220997466254       -0.07008414234763
H            3.63848084125500        1.61609724496357        1.02888239290744
H            3.84003065372301        1.53655172038722       -0.70961470670166
H            2.31255377084898        2.15135247181621        0.00897887342884
H            3.60370317383886       -1.85680669710583        0.06335058899907
H           -1.49382174192342        3.02280831257610       -0.02824604800749
H           -2.67756243927763        2.15616042017203       -0.93410753759136
H           -2.67587971464494        2.13880367648007        0.86954176376856
H           -1.33368961672520       -3.23606774992248        0.82923933775516
H           -1.30195453108201       -3.23534295254832       -0.96067059442014
H           -2.63801612321154       -2.45155649526841       -0.09692455171873
H            1.35300935653779       -3.04356252388816        0.03651465329521
