  72
        -99.33960453
 N         -1.6830490841        2.6939739299        2.4481286310
 C         -1.7010736144        2.0818116606        1.3589016777
 C         -2.8882675562        1.9995551731        0.4403363193
 C         -3.4185914988        0.5731221503        0.4228758873
 C         -4.4100113427        0.2155624931       -0.4933747798
 C         -4.9414578541       -1.0623002310       -0.5235044115
 O         -5.9104581150       -1.4839606007       -1.3644906720
 C         -6.5286747277       -0.5541393449       -2.2220102772
 C         -4.4606103179       -2.0415849599        0.3856390160
 O         -5.0305173790       -3.2607488863        0.2813710767
 C         -4.6738645446       -4.2623019558        1.2045228416
 C         -3.4750445571       -1.6820132243        1.2898487068
 C         -2.9642515577       -0.3896747828        1.3094596048
 C         -2.3693157977        2.3832382394       -0.9703608561
 C         -1.4943814479        1.3086011205       -1.6411236452
 C         -0.1419539993        1.2020382092       -1.0500194977
 N          0.4962471671        0.0638202318       -0.7812474579
 C          1.8788870655        0.0860248978       -0.3689386624
 C          2.8394608626       -0.2257572597       -1.5314996037
 C          4.2613214322       -0.1219494981       -1.0466118901
 C          4.9404851083        1.0403913210       -1.1471409826
 C          6.3340044293        1.2176825002       -0.6458469386
 C          6.9118036269       -0.0455840772       -0.0867970803
 O          8.1562215999       -0.0935722689        0.3406114833
 C          9.0067323386        0.8857384059        0.3535201861
 C          6.1511362183       -1.2389150153        0.0145969723
 O          6.8121594108       -2.2784499352        0.5701644825
 C          6.1504341582       -3.5143894947        0.7140608016
 C          4.8498940851       -1.2684903993       -0.4419950282
 C         -0.1355691544       -1.2234449198       -0.9404278025
 C         -4.0507255028        2.9498168570        0.8540236166
 C         -4.6609085401        2.5361599258        2.1912797607
 C         -3.6357490971        4.4175976209        0.9093681742
 H         -4.7829532370        0.9542960347       -1.1829866274
 H         -6.9805323025        0.2698088141       -1.6613622697
 H         -7.3097863013       -1.1084599769       -2.7385877067
 H         -5.8242575543       -0.1540016485       -2.9587270861
 H         -4.8844003392       -3.9533257543        2.2327688357
 H         -5.2899171514       -5.1235050535        0.9534554377
 H         -3.6173410080       -4.5350079617        1.1139464253
 H         -3.1030763610       -2.3993573886        2.0033902974
 H         -2.2220250406       -0.1396214423        2.0517511229
 H         -3.2251749205        2.5739495416       -1.6168057525
 H         -1.7992639644        3.3100820437       -0.8965827104
 H         -2.0153136475        0.3527447593       -1.6276289406
 H         -1.3753483100        1.6085349018       -2.6907425334
 H         -0.8210594181        1.5639534193        0.9301430503
 H          0.4364327155        2.1093889299       -0.9601018777
 H          2.0267138770       -0.6448088852        0.4307985221
 H          2.1208742721        1.0753375174        0.0254897043
 H          2.6648759560        0.4909063869       -2.3350885713
 H          2.6425158296       -1.2277705938       -1.9139377603
 H          4.4925453822        1.9041495772       -1.6134598518
 H          6.3382865936        1.9947464489        0.1411568615
 H          8.7774282882        1.8770687639        0.0054676174
 H          6.9692605144        1.6096238424       -1.4470028984
 H          9.9816632686        0.6394660890        0.7276688216
 H          6.8748407560       -4.1799599607        1.1792088012
 H          5.2733962353       -3.4249664941        1.3622759980
 H          5.8521222538       -3.9245737698       -0.2552559304
 H          4.2678754486       -2.1721087265       -0.3766814809
 H         -0.3445465023       -1.4340640458       -1.9915223360
 H         -1.0746225817       -1.2603179096       -0.3820316445
 H          0.5252528497       -1.9965207727       -0.5569613121
 H         -4.8248449880        2.8472169262        0.0851276715
 H         -3.9266308450        2.6414148309        2.9831546198
 H         -5.0056915461        1.5053948200        2.1637992231
 H         -5.5100888952        3.1755693267        2.4175553916
 H         -2.8511342997        4.5601671859        1.6458560861
 H         -3.2925518871        4.7796580564       -0.0562105321
 H         -4.4917400046        5.0186834689        1.2046381057
 H         -0.8128235557        2.6996244285        2.9713838737
