72
 energy: 0.000000000000 xtb: 6.6.1 (8d0f1dd)
N           -1.49301555697039        2.77522588926890        2.23214514867509
C           -1.56339002370791        2.16119851400953        1.14906559043916
C           -2.74943203355419        2.05323240728972        0.24823256281549
C           -3.31488048190292        0.64001856515986        0.34265300826650
C           -4.29422814139329        0.23221908258153       -0.56178568352692
C           -4.84472818755560       -1.03153598376265       -0.51669879975415
O           -5.78573486079460       -1.49310561858648       -1.37612915528742
C           -6.33474076535126       -0.59894996231550       -2.32081042683617
C           -4.40095640721115       -1.95035422956444        0.46299715894345
O           -4.98975284111965       -3.17143297569368        0.43247289809124
C           -4.66335841947042       -4.10591758808134        1.43418879244899
C           -3.42799578401215       -1.54476557127179        1.35760024892089
C           -2.89216152973047       -0.26192645338610        1.29675362653207
C           -2.19896752796287        2.29629110935628       -1.18166921379261
C           -1.27268901497988        1.17208289405881       -1.66756968894362
C           -0.00034020543159        1.11440691567058       -0.91800982470184
N            0.62619841875165       -0.03813719892878       -0.58267984177753
C            2.00238099629484       -0.03085423923656       -0.16900538791702
C            2.93341241864609       -0.53836006903806       -1.28749963682534
C            4.36018068372995       -0.43168940441778       -0.83918685216949
C            5.07731031003340        0.73223717690046       -1.04369911948262
C            6.38952599918591        0.84111506953539       -0.60306642245104
C            6.99994058569658       -0.21169033336530        0.05595650512830
O            8.27120997555813       -0.21478592690939        0.52640584218706
C            9.07139204985960        0.92374663665173        0.32458980973784
C            6.26938364511722       -1.40573723026650        0.27420129183052
O            6.94886661518753       -2.38699900212551        0.92331821241770
C            6.31249070836150       -3.62030381420413        1.14383912388839
C            4.96486801576746       -1.49479698866726       -0.16936887054753
C           -0.05042043815679       -1.30957705672018       -0.63448735070641
C           -3.87850172910045        3.07042177499178        0.58125720276212
C           -4.50674256107861        2.77100720119649        1.94062299875298
C           -3.41254382781829        4.52062218460163        0.53663626010235
H           -4.64138104610170        0.92607144961991       -1.31422894745159
H           -6.80108230198447        0.25401079009175       -1.84123487924180
H           -7.08494167711942       -1.19310477504225       -2.84054980143221
H           -5.60530366255943       -0.09739701982143       -2.98787029601925
H           -4.88419353080086       -3.71934361599133        2.43377489546789
H           -5.29036141386511       -4.97338854789945        1.23619348681863
H           -3.61028468698036       -4.40242781886433        1.38236903439074
H           -3.07951280519611       -2.21573355109487        2.12841826035723
H           -2.15769175145685        0.02611780050000        2.03538381799667
H           -3.03298334330874        2.38193589314603       -1.87802816982470
H           -1.65355229259547        3.24100853730892       -1.19862290320655
H           -1.81774540169648        0.22312802477371       -1.62634218335968
H           -1.02276485877793        1.37411157930985       -2.71692138245363
H           -0.68565248635444        1.64675122267695        0.66154262455520
H            0.63350844510215        1.98796513227988       -0.94859740825779
H            2.11518791123602       -0.66201982506258        0.71290225123103
H            2.29777721230448        0.98703511404315        0.09717614840863
H            2.77270105988760        0.07106570531357       -2.18155720528886
H            2.68434060757117       -1.57274966316054       -1.52604409092568
H            4.62672140527816        1.56466220484877       -1.56350171558065
H            6.92748618752527        1.75679892335734       -0.78758909037620
H            8.65246546750038        1.80349779892947        0.82363157641528
H            9.20653446098009        1.13734091241440       -0.74008576019385
H           10.03568172872035        0.68294836824053        0.76934503172438
H            7.05166652769804       -4.24235868470735        1.64589127407260
H            5.43432360631467       -3.51259692151604        1.79019966426776
H            6.01781600004398       -4.09716714221610        0.20336926978517
H            4.40055814875112       -2.40174997837463       -0.01622295883048
H           -0.22199520728973       -1.62564378009638       -1.66846073865851
H           -1.01388741884535       -1.25128143947633       -0.12317510239505
H            0.56470697259360       -2.05711253151458       -0.14175845194349
H           -4.65295760931430        2.93658395838120       -0.18670437657330
H           -3.77668792636271        2.90710037549091        2.72782714670094
H           -4.88450192533698        1.75112919420870        1.98186328942837
H           -5.33795669726196        3.45066930914302        2.11584537806084
H           -2.62156386842989        4.68837585871666        1.25867077324660
H           -3.06103640330603        4.80363934654880       -0.45244098874783
H           -4.24782772407874        5.17041763386887        0.78959371240756
H           -0.62347744539242        2.80684065118095        2.74241004179480
