  25
        -42.06920051
 C          3.3241426971        1.0284885494        0.0347918969
 N          2.2903192992        0.0268686458        0.0116505569
 C          2.4460040910       -1.2898893457        0.0222516735
 N          1.2441127825       -1.8981068570       -0.0070198464
 C          0.2821493107       -0.9237409128       -0.0302835349
 C          0.9431485767        0.2944959957       -0.0223226540
 C          0.2133938908        1.5417971177       -0.0127364498
 O          0.6872027002        2.6590302705       -0.0011559533
 N         -1.1655634768        1.2974757187       -0.0111253598
 C         -1.9793648792        2.5001882766        0.0240985080
 C         -1.8202657819        0.1215486046       -0.0296307435
 O         -3.1506109714       -2.0952813602        0.0449608151
 N         -1.0605084462       -1.0158862103       -0.0527642545
 C         -1.6899184510       -2.3030486846        0.0579428478
 H          3.9399796501        0.9159692253        0.9269488090
 H          3.9594486354        0.9406980919       -0.8464821033
 H          2.8497728755        2.0099669472        0.0423996928
 H          3.3883974415       -1.8002463113        0.0501809948
 H         -1.6758446161        3.1667382203       -0.7827174430
 H         -3.0247342789        2.2271207022       -0.0809522038
 H         -1.8201862480        3.0236660412        0.9674861084
 H         -3.4436512750       -1.5368353697       -0.7268411667
 H         -1.4636976207       -2.9076231689       -0.8228505725
 H         -3.3520009034       -1.5617504263        0.8411324387
 H          1.0763934427       -2.8926869874        0.0342098316
