72
 energy: -99.274370631351 gnorm: 0.008712284955 xtb: 6.6.1 (8d0f1dd)
N           -1.66390106882835        2.83350987939389        2.28052902595557
C           -1.64887181933717        2.10995222501659        1.26284063468633
C           -2.81679309335684        1.91306386965402        0.33618686669567
C           -3.31401982064260        0.47984906807569        0.44790882228875
C           -4.20978420008427       -0.02025198737569       -0.49944967555124
C           -4.69956065974441       -1.31308341310565       -0.42043523933712
O           -5.55931722816759       -1.87563730747686       -1.29524679203812
C           -6.06982100683383       -1.10213602938395       -2.35509950657403
C           -4.28865320373663       -2.15309623056373        0.64978627072805
O           -4.81651516710056       -3.39336121808624        0.64856301317206
C           -4.53209131382430       -4.26002469553082        1.72202547607958
C           -3.40387830345915       -1.64838973809167        1.58942266695214
C           -2.92254914067980       -0.34942241834439        1.48744728974029
C           -2.27305805583738        2.18179467219460       -1.09104465622500
C           -1.37587506913990        1.06414080712396       -1.64734886316439
C           -0.01368347365258        1.03904442620819       -1.06869752901294
N            0.65245007107940       -0.05286483636088       -0.71465813097667
C            2.08757345945315       -0.00705601411087       -0.57905042515555
C            2.77623168597045       -0.30167608764985       -1.93433849798072
C            4.23932777549057       -0.42714715624568       -1.74812607334679
C            5.31283918569842        0.40799104528168       -1.80365519963612
C            5.95866485958716        1.47318863972219       -1.05320565793422
C            6.72299744576198        0.54884275351376       -0.39824459044654
O            7.52776146743369        0.51680740190527        0.64924295561914
C            7.74889327666961        1.74864931231871        1.31792695345074
C            6.31570257913205       -0.61598435156406       -1.28427018307236
O            4.60292001817372       -1.83284958208350        0.17035110486122
C            5.51666284865688       -2.61642711647783        0.91356353066863
C            5.05353845798122       -1.55576093786192       -1.12299016124786
C            0.02025916996902       -1.34849908621590       -0.65022438744063
C           -4.01327995951477        2.86593398567317        0.63100915935065
C           -4.64120041578716        2.57610747251771        1.99198150412160
C           -3.63946104267042        4.34288456722861        0.54113957627930
H           -4.53836239908407        0.61660328407127       -1.30378038764834
H           -6.61912227982642       -0.22997857877841       -1.98804644022623
H           -6.75315671651497       -1.75753369651250       -2.89144659003348
H           -5.27544633447416       -0.77628725026295       -3.03481266803588
H           -4.85421863792583       -3.83369876242111        2.67661086980700
H           -5.09873745748693       -5.16734467814501        1.52236785487158
H           -3.46580800056313       -4.50271347223112        1.77114148099380
H           -3.08658270872068       -2.25727870381361        2.42023477493948
H           -2.25515657347162        0.01644038816300        2.25219499802241
H           -3.11635163910107        2.31171522011738       -1.76825863394315
H           -1.71212322172318        3.11709840989123       -1.08315626465953
H           -1.87572992623940        0.10309717536766       -1.54069743256200
H           -1.25730318213569        1.25999154434952       -2.72167015575083
H           -0.75245833595159        1.56401642531804        0.90724637351784
H            0.55352517116941        1.95839325700110       -1.09242001377121
H            2.42010079994269       -0.74871571361794        0.14873373814739
H            2.39469155689439        0.98212158162989       -0.23434395371099
H            2.55670939520733        0.50411720558234       -2.63691630577221
H            2.37626033923659       -1.23708121365219       -2.33278757882702
H            7.09473324098667       -1.01564563936046       -1.91080285073644
H            5.77191461930184        2.52471747634738       -0.96067163426588
H            6.81724353737713        2.12435328050287        1.74884973954422
H            8.15734486841519        2.49365762362248        0.63146133524030
H            8.46563171345714        1.54112113796063        2.10910629054536
H            6.47280551292265       -2.09762919508435        1.02722118452468
H            5.06455754226578       -2.77281608414909        1.89020647143753
H            5.68824845353450       -3.58232818510731        0.42712036572709
H            5.17550554116055       -2.48321416113775       -1.70235427840525
H           -0.20933219418540       -1.73479453690650       -1.64614989533131
H           -0.90690303707847       -1.28779633626363       -0.07645100391338
H            0.69149726054465       -2.04648337658533       -0.15534598151829
H           -4.76710315424141        2.65861135733876       -0.13756405276434
H           -3.92605437906391        2.77901332996985        2.78256492960673
H           -4.96433365561529        1.54052063614294        2.06385201026594
H           -5.50814105619754        3.21555428922191        2.13576706499049
H           -2.87363111602290        4.58249571347539        1.27236014310956
H           -3.28709539155278        4.61433624518472       -0.45042306970691
H           -4.51692154102671        4.94625141440411        0.75836030089028
H           -0.80768927587676        2.91316019156465        2.82012482649273
