25
 energy: 39.104678893006 xtb: 6.6.1 (8d0f1dd)
C            3.36736363059117        1.06215857768731        0.13447008654917
N            2.35478583550658        0.05452873533479        0.00289837250609
C            2.63756932890207       -1.30127501066412       -0.08102486432598
N            1.44523169037968       -1.97896138584461       -0.14337046709851
C            0.44140763168981       -1.08325425224607       -0.04695654560539
C            0.93783465398916        0.20689386795476        0.05017888449172
C            0.05733365615601        1.37130922249790        0.15277916702955
O            0.46550767205009        2.51835428576257        0.34247298975764
N           -1.42676884004298        1.14472437723385       -0.00986544499364
C           -2.59226322113400        2.45217062628455       -0.28793285540206
C           -1.86087707047389       -0.16586613018259        0.13432478445632
O           -3.01804882639395       -0.50471557398173        0.26363011124472
N           -0.89804822277155       -1.28386673821477        0.04770956633010
C           -1.33109985930660       -2.66774983149434       -0.01479448122389
H            3.92127555296531        0.98284174185396        1.08310756425531
H            4.09965726965162        0.95194847649543       -0.67397058796082
H            2.89867419038618        2.03709770667259        0.08908830004477
H            3.59878849882287       -1.74883814168735       -0.21180564133013
H           -2.07158353582936        3.40437811237967       -0.32875821319438
H           -3.16917302328093        2.36075527852181       -1.21642276458830
H           -3.27283708284488        2.47683533005984        0.55069517856769
H           -0.94924144081767       -3.25098789628199        0.83336639127379
H           -0.94382939150887       -3.12375638998826       -0.93494368278458
H           -2.42147880986726       -2.69790626988544       -0.02584409388630
H            1.38725455358088       -2.97773825960734       -0.23842257889814
