25
 energy: 59.118639774759 xtb: 6.6.1 (8d0f1dd)
C            3.43747698177036        0.95139852426146        0.17474424892003
N            2.41782423711433       -0.05344703346053        0.01702680791668
C            2.72385975020753       -1.33466616494768       -0.12067080968773
N            1.58550615601905       -2.06853290377902       -0.15623782297391
C            0.52796659539776       -1.19974684424045       -0.03316650227299
C            1.05504006681158        0.07824071149678        0.06440127326198
C            0.12923286507590        1.24940335191005        0.24619033582901
O            0.59285575873342        2.35319812442263        0.50034138965375
N           -1.18480014929195        0.96468004591928        0.17339708845134
C           -3.13577012455607        3.05052902913042       -0.42293475769472
C           -1.71744134281080       -0.22515503220838        0.23288971251375
O           -2.85131903187318       -0.55708398926773        0.46728665435807
N           -0.76748373689811       -1.43755857311036        0.03116047245212
C           -1.24543583079016       -2.78901809970226        0.01003293701577
H            3.97091384812947        0.75464840113331        1.10892659832385
H            4.14709369897880        0.87124541523753       -0.64917236561161
H            3.00543027775075        1.93680787583525        0.21148415338280
H            3.70223762184432       -1.69122310364593       -0.33333223547143
H           -2.41063232106020        3.80887502239671       -0.41876198185665
H           -3.55309876798432        2.74853512967585       -1.34667896515904
H           -3.64750026780316        2.80785578574631        0.46108815029908
H           -0.85398858337767       -3.35044449756956        0.86633874576519
H           -0.89251233523662       -3.25191893017046       -0.90944449047414
H           -2.33633796378313       -2.79920568053779        0.03207696720515
H            1.55645480403836       -3.06815676275420       -0.22121477017951
