25
 energy: 56.895775536163 xtb: 6.6.1 (8d0f1dd)
C            3.39605265224217        1.02528811519441        0.14551935056498
N            2.37970602558166        0.01136018679965        0.00467307318957
C            2.66192411598072       -1.29642865234312       -0.09879757133284
N            1.50188057008089       -2.00860259644784       -0.14767064231765
C            0.46779556100859       -1.11818728765984       -0.05243590510151
C            0.99501954807141        0.15673322611346        0.04190351376864
C            0.07130772511798        1.33167814812859        0.18955417803582
O            0.50493575103818        2.45698856021203        0.39968351117643
N           -1.28085860336814        1.04500403417597        0.09578341842933
C           -2.85854313049663        2.73986744810439       -0.36836500623701
C           -1.80239606423217       -0.17702384972586        0.17118836579053
O           -2.95262772814106       -0.51018675036608        0.33904964779716
N           -0.84036418329868       -1.34365061310263        0.03325060346466
C           -1.28835208973060       -2.70744700255800       -0.00340365225898
H            3.95231885226112        0.90169407162363        1.08400847007951
H            4.11179274756047        0.92483595691103       -0.67397038110212
H            2.94920504642349        2.01114486954060        0.13705869273101
H            3.61795484164475       -1.73292091586656       -0.27229124988783
H           -2.19661965545663        3.56283684960994       -0.37342137808421
H           -3.34083385849710        2.51399520012252       -1.28803323183790
H           -3.41461712764437        2.58693831338871        0.51037944216745
H           -0.88923376161504       -3.27059337281272        0.84637221650996
H           -0.90092120858669       -3.14563307505446       -0.92533195415758
H           -2.38234608098603       -2.73638369280927       -0.00839018963412
H            1.45143794624347       -3.00730325444664       -0.22808813640837
