25
 energy: 54.444677661944 xtb: 6.6.1 (8d0f1dd)
C            3.43342607062192        0.95374434329464        0.12096303034075
N            2.52205026826459       -0.15845522041893        0.04549604097580
C            2.84036122712025       -1.43525212736485       -0.10716962022791
N            1.70658248972934       -2.18081996568607       -0.11780963066435
C            0.63466304576789       -1.33244318073579        0.04344526123303
C            1.16342731082804       -0.05006441365300        0.14888609156263
C            0.25831498147882        1.12203212509145        0.27689311064076
O            0.69244435640933        2.26393783798182        0.31830949905847
N           -1.03590692869073        0.78543301526790        0.34445119019480
C           -3.60296751513609        3.66461189570555       -0.41543336081267
C           -1.60164654306517       -0.37941123544297        0.25846312483715
O           -2.76602669585732       -0.67554604639317        0.28583492596924
N           -0.65633508933769       -1.60368752135275        0.08703879915785
C           -1.21882595814821       -2.92082901202120       -0.03892477662586
H            3.95623661099968        0.94923213072249        1.07989510564343
H            4.16628226267113        0.90080212642468       -0.68345693847660
H            2.85305903921435        1.87398913068615        0.04111131637559
H            3.82946276859106       -1.82770848476522       -0.20703873451650
H           -2.79708847664529        4.36314941147336       -0.39242546582221
H           -3.95305769451425        3.27963934464586       -1.34931092923787
H           -4.06903515312950        3.35438365009879        0.49184518569495
H           -0.94619198314503       -3.55324390328918        0.80970597037027
H           -0.91179729050545       -3.39493454559921       -0.97470768823895
H           -2.30304083224595       -2.78810902164611       -0.04585571412058
H            1.65986025876842       -3.18210092086589       -0.21290665186900
