25
 energy: 54.387146584843 xtb: 6.6.1 (8d0f1dd)
C            3.38230704194146        1.04309468015547        0.13983918524741
N            2.36992147717632        0.02619294836826        0.00363260840417
C            2.64845252504451       -1.29448796041565       -0.09826589410002
N            1.47827070236400       -1.99687861616569       -0.14508768063246
C            0.45369323994726       -1.10113469744224       -0.05082373727556
C            0.97570074665982        0.17471176857704        0.04096104905423
C            0.05661862037507        1.34753150928127        0.17429962166069
O            0.48127162019615        2.47884743948588        0.37148912216120
N           -1.31609889397173        1.06681487288084        0.07168725040752
C           -2.77635009943684        2.65185769722703       -0.34473110093598
C           -1.82369133313277       -0.17218357180666        0.15646827222063
O           -2.97749169523379       -0.50644276213235        0.30100054562332
N           -0.86047250596684       -1.32425339136975        0.03879307910842
C           -1.30573225137805       -2.69280645166734       -0.01062488490460
H            3.93948141310241        0.94123915066275        1.08201246916288
H            4.10411727293487        0.93952572580300       -0.67552038476403
H            2.92367490164516        2.02415057726979        0.11643674935766
H            3.60717615646037       -1.74562673196153       -0.24259266886585
H           -2.13826861921371        3.49972533250702       -0.36101274752935
H           -3.28046751674479        2.45381111439400       -1.26482148591072
H           -3.35360375242079        2.54088366955062        0.53373611079112
H           -0.91659650837157       -3.26849195312168        0.83654452247354
H           -0.92234029031310       -3.13723407131398       -0.93369285860063
H           -2.39911631639888       -2.71727260153601       -0.01620330193304
H            1.42202348785491       -2.99440617633816       -0.23953087254934
