25
 energy: 54.830637026554 xtb: 6.6.1 (8d0f1dd)
C            3.43770573963729        0.94674588748953        0.14420501261041
N            2.48795784759717       -0.13122434653724        0.03603513686560
C            2.80100773016192       -1.41056711311695       -0.13212687333429
N            1.66475732854229       -2.15063229067841       -0.13601470875258
C            0.59949185480570       -1.28923584919049        0.02248684110372
C            1.13099157329666       -0.00940697581868        0.12674773594210
C            0.22143272351296        1.16597848928924        0.27988592990707
O            0.67553858947217        2.29320487583139        0.39952258518378
N           -1.08136392686550        0.84756608606240        0.28455641714040
C           -3.42967828212897        3.42656605997876       -0.44420523729686
C           -1.64036939665768       -0.32589911938530        0.25964512363893
O           -2.79063040001391       -0.65452940721747        0.36526692926922
N           -0.69107210133412       -1.55305267670567        0.06635888979334
C           -1.22538555623324       -2.88170442965289       -0.01984258273802
H            3.97558637458369        0.87242653083281        1.08960088128035
H            4.16074155726420        0.89342944398901       -0.67264037266911
H            2.90455811467360        1.89803528513558        0.10876746013810
H            3.78571182357429       -1.80711237095026       -0.24676848094294
H           -2.63167869702712        4.12769031983274       -0.42482563975052
H           -3.79084091087889        3.05650614150078       -1.37557349225394
H           -3.89600830281985        3.12064395296388        0.45905898643242
H           -0.90303573874580       -3.49088950624837        0.83094028117623
H           -0.90450707938851       -3.35409772689885       -0.95141175609632
H           -2.31499531693064       -2.80090046428515        0.00380863739495
H            1.61747064774617       -3.15468110336794       -0.23087421620878
