25
 energy: 54.342727221019 xtb: 6.6.1 (8d0f1dd)
C            3.43658069219304        0.95230760865623        0.12211933321634
N            2.52156522638061       -0.15807407402495        0.04569778570905
C            2.83629336579956       -1.43702914085243       -0.10835129889202
N            1.70027119313169       -2.17886236258697       -0.11519720324477
C            0.63310179769787       -1.32685831696141        0.04176167193617
C            1.16394766592181       -0.04764925365768        0.14540251609670
C            0.25338471746474        1.12272216973405        0.27866259719316
O            0.69102401360422        2.26235266877250        0.32652193965299
N           -1.03655635845578        0.78147361201216        0.32470332960496
C           -3.60972796330481        3.67725206135000       -0.41175936446283
C           -1.58740275767676       -0.39838094798996        0.25370618277370
O           -2.75607013816271       -0.68156763913403        0.29638661364863
N           -0.66182247437498       -1.59517704303484        0.08601184777089
C           -1.22049549335087       -2.91549769692616       -0.03796063750361
H            3.95783547498516        0.94934881201979        1.08099456653225
H            4.17194311753275        0.89511948749104       -0.68007242404811
H            2.85689629930636        1.87447385798583        0.04097309852667
H            3.82344457097633       -1.83400757107130       -0.21594507446619
H           -2.77611425767711        4.34429900216128       -0.38539966503349
H           -3.93638825790550        3.26664858032058       -1.34238996671262
H           -4.05014692766070        3.33817239489690        0.49973131385864
H           -0.94110649131093       -3.54249584916699        0.81219915591499
H           -0.90530781300754       -3.38768383083875       -0.97117135294744
H           -2.30538093828476       -2.79185747235101       -0.04446934121361
H            1.65244604115083       -3.18000026805961       -0.21512171171593
