25
 energy: -3.513813733785 xtb: 6.6.1 (8d0f1dd)
C            3.27776292059194        1.15282373206052        0.10027141312212
N            2.31876495300687        0.09737450320936        0.03772636468715
C            2.61348449017237       -1.25504473383689        0.01695990838609
N            1.42400355778803       -1.94980580601015       -0.02510343226716
C            0.41082977555375       -1.06229856331993        0.01213108571126
C            0.91942244478214        0.22852009418474        0.05640678549904
C            0.09361160944425        1.38465975479759        0.04308279461787
O            0.48249447647173        2.55625354451132        0.07547041944612
N           -1.32602305222626        1.08161039900659       -0.00588268530015
C           -2.30500333072375        2.20889083943815       -0.10914182386863
C           -1.83459090415276       -0.18936660284985        0.00394391887503
O           -3.02655974084873       -0.42174743372040        0.00264142826308
N           -0.93262130589525       -1.29065546168336        0.01329346268881
C           -1.43571797529643       -2.64850073585346       -0.04854616720172
H            3.78295637853205        1.17443966982113        1.07303385163926
H            4.03590002266341        1.02687146871439       -0.67833716140204
H            2.74539504794816        2.08739456971011       -0.04265869652170
H            3.58925882721652       -1.68604681665795       -0.00137993921287
H           -1.76386622464888        3.15606228641243       -0.10014369523152
H           -2.90670379781839        2.16561539978961       -1.01783234263177
H           -2.97548107739869        2.18155592550008        0.75229631126571
H           -1.11936874049790       -3.22171173063686        0.82734899188723
H           -1.09226215503690       -3.16450377788335       -0.95158408060406
H           -2.52256613714198       -2.58910835443117       -0.06466331981545
H            1.35751144240861       -2.95454350805334       -0.06256030692891
