25
 energy: 0.072780009110 xtb: 6.6.1 (8d0f1dd)
C            3.29367379529822        1.13924214695963        0.10627311509595
N            2.32465740438400        0.09116735401807        0.03665832578088
C            2.61743874371054       -1.26455500207041        0.00297154099479
N            1.42339594384373       -1.95385119277401       -0.04371861382694
C            0.41430402294280       -1.06301226517905        0.02512866974186
C            0.91804535412792        0.22919471750901        0.07756897497745
C            0.08198471245260        1.38441147687572        0.07024273755923
O            0.47399445893070        2.55361294339549        0.11996420901444
N           -1.35548168754332        1.09926611432060        0.00816102982510
C           -2.34847564140775        2.24042375616122       -0.14500649294532
C           -1.84421616074731       -0.18351799101556        0.03175470665944
O           -3.03152711389367       -0.43781511263156        0.04097644138768
N           -0.93090879332197       -1.28435794963442        0.03775643624397
C           -1.41717232608823       -2.65042088857173       -0.04185296466214
H            3.81025227050290        1.14586064706815        1.07423766225179
H            4.04650155436505        1.01837618568367       -0.67968168019067
H            2.77002737587948        2.08059071631854       -0.01844018895662
H            3.59167731717172       -1.70274843845844       -0.03272716993788
H           -1.80746920181196        3.18845928917169       -0.14469165184491
H           -2.94242685282756        2.19764909031251       -1.06220588153260
H           -3.02538930962569        2.23421410024297        0.71399678768288
H           -1.08987792683539       -3.22938293338959        0.82677825763718
H           -1.06513220301627       -3.15831041558487       -0.94782884844718
H           -2.50491483842838       -2.60971764379670       -0.05805187827020
H            1.35367877761210       -2.95854706775708       -0.09129438470619
