25
 energy: 5.014247145223 xtb: 6.6.1 (8d0f1dd)
C            3.30771526044747        1.12367098732593        0.11256142844636
N            2.32765515972359        0.08305765973911        0.03452922173107
C            2.61952489491557       -1.27433606598049       -0.01149844548939
N            1.42218394630633       -1.95824023479752       -0.06488234050178
C            0.41569311092392       -1.06511506706436        0.01973263373267
C            0.91573822538133        0.22799869873532        0.09371337778226
C            0.07034211681349        1.38455056985595        0.09418618219171
O            0.46544064047582        2.55087497327479        0.16311539375380
N           -1.38491175484501        1.11764669121896        0.02002708569619
C           -2.39293386921620        2.27426974296307       -0.17906214325465
C           -1.85396623902266       -0.17650991239204        0.05650121108095
O           -3.03594334678911       -0.45224358023532        0.08024234472483
N           -0.92988292429296       -1.27829355683416        0.05899084574930
C           -1.39947324542260       -2.65215241898600       -0.03536228563831
H            3.83623264493363        1.11524591045233        1.07503378315556
H            4.05503147927990        1.00683775035171       -0.68033932214723
H            2.79446972446166        2.07252856509752        0.00550804690861
H            3.59235771108270       -1.71729646757732       -0.06690623486715
H           -1.85556439435731        3.22526526723220       -0.18796240787622
H           -2.97932170285029        2.22550642018990       -1.10450925461007
H           -3.07412213513356        2.28477107135689        0.67680852396281
H           -1.06002381470911       -3.23665070295784        0.82569295820286
H           -1.03924705668115       -3.15044926611711       -0.94472212620793
H           -2.48770383041564       -2.63053042391934       -0.05093369561710
H            1.35219943696948       -2.96283058707568       -0.11985006388563
