25
 energy: 11.346399666283 xtb: 6.6.1 (8d0f1dd)
C            3.32207257396779        1.10817816138566        0.11823519966774
N            2.33226885974428        0.07491896165111        0.02825815825831
C            2.62307944612805       -1.28337627090143       -0.02789166990696
N            1.42388717603671       -1.96274523043768       -0.08719561899527
C            0.41929022030912       -1.06728451255549        0.00432019288347
C            0.91772131126153        0.22505665063799        0.08476707060023
C            0.06066906809002        1.38347728215349        0.11150154464350
O            0.45860849394874        2.54625811714374        0.20515483038340
N           -1.41378869519455        1.13597835423696        0.02266778968976
C           -2.43998695704293        2.31147916369320       -0.20994555495815
C           -1.86210672505472       -0.16950609616877        0.07840370440249
O           -3.03759750459361       -0.46738273883365        0.12441558733281
N           -0.92507294565520       -1.27334770898787        0.07655002606761
C           -1.38282139573236       -2.65316301599323       -0.02851013838495
H            3.86007106103433        1.08388457498129        1.07624686207867
H            4.06488360334749        0.99384307573869       -0.67986253860458
H            2.81999976842040        2.06451116554329        0.02787387339428
H            3.59405924876450       -1.72929624441214       -0.10180620601320
H           -1.90867752702180        3.26664310380337       -0.22740356365148
H           -3.02045113439278        2.25361525043693       -1.14203275414223
H           -3.12253875569960        2.33069647944071        0.64229632860984
H           -1.03305949337802       -3.24470068876392        0.82469797975029
H           -1.01645167776962       -3.14019683118574       -0.94253028554102
H           -2.47151863502133       -2.64722614227406       -0.04358760084167
H            1.35457111591476       -2.96706221395375       -0.14885850480219
