25
 energy: 54.370186883280 xtb: 6.6.1 (8d0f1dd)
C            3.43098569406308        0.95352492878278        0.11979119109380
N            2.51453268916824       -0.15372179091088        0.04092361296180
C            2.83693628210841       -1.43023661747728       -0.10437434188826
N            1.70506923539838       -2.17869861248094       -0.11132214305477
C            0.63065916731284       -1.32867462384462        0.03859999953437
C            1.15884116282625       -0.04667852849684        0.14069132677676
C            0.25893424675043        1.12901402715627        0.27800394977812
O            0.71119438603053        2.26239379389589        0.33249950526464
N           -1.03973690532271        0.80214992831730        0.33549651458620
C           -3.53843804258360        3.57519104280727       -0.43136284647719
C           -1.60612731062192       -0.36331087617434        0.26408648164202
O           -2.76448875178910       -0.67024517158534        0.28865646610611
N           -0.65722420067427       -1.59983693038728        0.08003759178101
C           -1.21648879317584       -2.91720215921195       -0.03918379551888
H            3.95126941463385        0.94223564919644        1.07723081137604
H            4.17015522856184        0.90090910767695       -0.67971255817646
H            2.85162506775456        1.87560212041612        0.05103766296474
H            3.82691311550724       -1.82235336440227       -0.20010376044147
H           -2.72265753516136        4.26216231474649       -0.41222532835356
H           -3.88390279258768        3.18552456317083       -1.36653824320770
H           -3.99815505850191        3.25013183230552        0.47242628780966
H           -0.93709034922926       -3.54772378384546        0.80964133789478
H           -0.91146656602298       -3.39618899582937       -0.97488137766677
H           -2.30097191646332       -2.79206136717829       -0.03987128141389
H            1.65610001178474       -3.17956597433005       -0.21596273332248
