25
 energy: 27.444160457831 xtb: 6.6.1 (8d0f1dd)
C            3.35314843539378        1.07671950762716        0.12967925103671
N            2.34560008296205        0.06179856668077        0.01281437796119
C            2.63259881861172       -1.29670367879497       -0.06505357163091
N            1.43578962040090       -1.97087278920467       -0.12582993202775
C            0.43074248792302       -1.07401975210587       -0.03119766968324
C            0.92540066277201        0.21872878077204        0.06119030437423
C            0.04918710789919        1.38079260131716        0.14174126400546
O            0.45342291541709        2.53289321932987        0.29631032977622
N           -1.44596968909098        1.15956151179791       -0.01725700216164
C           -2.54047778719549        2.39337803086267       -0.26424260353743
C           -1.87028564506152       -0.15729969921873        0.10879113170342
O           -3.03045575282805       -0.49077661735757        0.21618931927484
N           -0.91167639779074       -1.27320819071821        0.05394761133608
C           -1.34866383043072       -2.65962155468291       -0.02058858670306
H            3.90718836937967        1.01130077331082        1.07796706619686
H            4.08406541284245        0.96818350666907       -0.68058612745318
H            2.87532635581646        2.04764375249893        0.07683922792386
H            3.59823375769175       -1.74539268347929       -0.17789109577251
H           -2.01267327322982        3.34664760547960       -0.29944519520293
H           -3.12460313658858        2.32134739108549       -1.19509833640572
H           -3.22293514604820        2.42603173497109        0.58075470453498
H           -0.97477954898204       -3.25075073045286        0.82551471095701
H           -0.96926225140232       -3.12876944224412       -0.93812974886165
H           -2.43804789204106       -2.68346540892564       -0.03062295231244
H            1.36955197261719       -2.97371246438312       -0.20589936268058
