25
 energy: 55.504377762398 xtb: 6.6.1 (8d0f1dd)
C            3.43781527709832        0.93983162231702        0.15508442588482
N            2.47101766533495       -0.11888036838086        0.03541664650816
C            2.78386465761722       -1.39614400602984       -0.13036113875866
N            1.64959084899037       -2.13597277926167       -0.14025133294776
C            0.58484841014172       -1.27437713207635        0.01214541901118
C            1.11472114666807        0.00466556890886        0.11369679982276
C            0.20415395765873        1.17826534478664        0.28062086860673
O            0.66342154399308        2.29643680597900        0.43895678229742
N           -1.09944184233462        0.87158032308275        0.26074489873051
C           -3.37312585478745        3.35359458513225       -0.44564487096401
C           -1.65255997060195       -0.30500567182176        0.25967456177279
O           -2.79563878370768       -0.63702647590094        0.39747813175735
N           -0.70541146674375       -1.53156671034284        0.05602511339967
C           -1.22755982183877       -2.86459486580044       -0.01293228933475
H            3.97558668155316        0.83340924532231        1.09471577347215
H            4.15279982510752        0.88192047618175       -0.66727689755258
H            2.92705774121225        1.90466516125690        0.13623905749944
H            3.76887441257185       -1.78068977101083       -0.25675352633102
H           -2.59066112074151        4.06409808994096       -0.42673849364494
H           -3.74479840603489        2.99620753308671       -1.37467410231661
H           -3.85142827254305        3.05794954504655        0.44955108348417
H           -0.89180893728200       -3.46338540084654        0.83942418764791
H           -0.90277691694446       -3.33611507405330       -0.94125214910537
H           -2.31567563107748       -2.80717723183544        0.01784775507474
H            1.61143404450689       -3.13930286569561       -0.22593666556671
