25
 energy: 54.569622894206 xtb: 6.6.1 (8d0f1dd)
C            3.43735891615315        0.95157181454103        0.12280767906730
N            2.52596933913136       -0.16483574914790        0.04691028828230
C            2.84257157604979       -1.44293732408246       -0.11482133801588
N            1.70428584391848       -2.18236390392381       -0.11390771176886
C            0.63405662122202       -1.33268150677797        0.05006351120811
C            1.16903999502520       -0.05226992189661        0.15913938678609
C            0.26828208358738        1.12119251187979        0.29080117188435
O            0.69618591690464        2.26615558679176        0.29905154458000
N           -1.02628151749585        0.78143102668597        0.35908314579656
C           -3.60218133045060        3.66201192719800       -0.41775730423331
C           -1.60592606386685       -0.37086786399101        0.24811271721485
O           -2.76928103518360       -0.66708378669850        0.24144246176834
N           -0.65497453395792       -1.60782816122770        0.09678363568951
C           -1.21717016327805       -2.92406189453904       -0.03960346424291
H            3.95725839289572        0.96869731706018        1.08365030818904
H            4.17676107044100        0.89250956564452       -0.67564122163856
H            2.84933442039927        1.86897581253392        0.03176551991215
H            3.82930708583052       -1.84729849618728       -0.22005359591648
H           -2.77875679668495        4.33940763972241       -0.39298649616768
H           -3.93524678341481        3.26202258499114       -1.34985652488222
H           -4.04582052916601        3.32741518276478        0.49095885736360
H           -0.94622709401567       -3.55846297107267        0.80867402879842
H           -0.90674593444413       -3.39683060697969       -0.97425192248244
H           -2.30044030727603       -2.78962779436588       -0.04376484600935
H            1.63997640908907       -3.18004687588314       -0.23149297301492
