72
 energy: -99.354094847715 gnorm: 0.007043544459 xtb: 6.6.1 (8d0f1dd)
N           -1.82836749616770        1.86786109404318        1.97819480796544
C           -2.70133415376940        1.40706537483598        1.20574823876602
C           -3.46528768299479        2.07543981845495        0.04922045523235
C           -4.11867553140166        0.71063356385720       -0.12946714047923
C           -5.02095166601761       -0.00075207041488       -0.88009817521536
C           -5.21235639615433       -1.33730179895642       -0.51001598850469
O           -6.05303751233684       -2.18852535602872       -1.12126132804272
C           -6.85291292459686       -1.72928183409436       -2.18720055894279
C           -4.50025095789415       -1.91432230483322        0.59094333453751
O           -4.80334198092464       -3.20973857818132        0.81636114429998
C           -4.21895551608954       -3.87318346793931        1.91213700865696
C           -3.58657945579650       -1.17135631125307        1.33462231947965
C           -3.41710967603742        0.14653259654045        0.94401575373731
C           -2.61314358958498        2.55200480145000       -1.13021910364521
C           -1.79701214773969        1.46905034105636       -1.83897275799626
C           -0.47680968362713        1.08230427142135       -1.13455394356470
N           -0.45783835931278       -0.17828663574882       -0.43260413177169
C            2.93884079481017        0.09140642422208        0.01475540414979
C            3.24747296253952       -0.32737444349170       -1.36258030343343
C            4.41837403408173       -0.00528098245775       -0.40834203006153
C            5.14022317991690        1.22955368382337       -0.62975892835491
C            6.47772811940019        1.32871980324811       -0.38764600649535
C            7.21575397786774        0.23473279616124        0.09308465928966
O            8.52054378657738        0.23287916081650        0.35218028437271
C            9.28822880462972        1.39856864360810        0.13887056893140
C            6.54026620091578       -1.01149372060111        0.34071437646685
O            7.34235785132595       -1.98815390604093        0.80685793647222
C            6.78758008557485       -3.25369359503465        1.08471020463462
C            5.20195099706562       -1.12053371691758        0.10008269333752
C           -0.67860399520971       -1.35709919233495       -1.23053347422745
C           -4.43303453441309        3.17886397398801        0.52732722657479
C           -5.36034161819375        2.66320916471777        1.62753606783593
C           -3.66514344575813        4.39939975916666        1.02880987712085
H           -5.56084735800299        0.43667870366676       -1.70389138459570
H           -7.51132143467287       -0.91467340143591       -1.87140056886194
H           -7.45564161133106       -2.58398423963307       -2.48807834635652
H           -6.24319026884959       -1.40038387564106       -3.03431180048026
H           -4.46578235492876       -3.38064187782943        2.85747857378943
H           -4.64406775766201       -4.87485712079474        1.90627191792161
H           -3.13141259781990       -3.94157840873048        1.80704832347451
H           -3.05502213921006       -1.60393083713291        2.16691323897576
H           -1.02664082080004       -0.17788012891157        0.39773614608209
H           -3.29250656886917        2.99480390191640       -1.86258851903569
H           -1.93866788096598        3.33331628934651       -0.78111386116371
H           -2.41505735901673        0.58017387492270       -1.97539358802627
H           -1.54942092901301        1.84208259422730       -2.83435487210713
H           -0.21371870051398        1.85797399033182       -0.41161388934712
H            0.31937819458102        1.01701898750376       -1.87936835315524
H            2.59235785871165       -0.64777904401962        0.71847251001233
H            2.55204509899918        1.08259261689316        0.18695648754459
H            3.09135649682817        0.36793790410429       -2.17206997677220
H            3.12944574033404       -1.36403696691169       -1.63521076103389
H            4.59103954933638        2.08131535238961       -0.99885353935173
H            6.97766187168502        2.26657465453430       -0.56942365821437
H            8.94407285602131        2.22339579619533        0.76878150823092
H            9.26661104208159        1.70321328916929       -0.91104851834612
H           10.30597128231794        1.13165830449701        0.41697624136800
H            7.61533992009696       -3.86218628463020        1.44288651698120
H            6.02006877064373       -3.19104170750083        1.86197119189208
H            6.36414261238328       -3.71041546374455        0.18514740855445
H            4.68075341542537       -2.04687629912026        0.27788839488835
H            0.06728352577892       -1.38154251346347       -2.02242306643395
H           -1.67258276479393       -1.39139266605276       -1.69052144640096
H           -0.56722378950256       -2.23940417249185       -0.60400976265427
H           -5.04955404389469        3.46717409887850       -0.33258498486967
H           -4.78826322509206        2.38873661135729        2.51141612154041
H           -5.92436765262181        1.79391434679085        1.29547388556396
H           -6.06687157903358        3.44029509761820        1.90782354712548
H           -2.90963131573694        4.09218773642860        1.74839566304995
H           -3.17985208303033        4.92811106815404        0.21317964369635
H           -4.34836886428483        5.09039114461884        1.51637255643883
H           -1.45923200927816        1.25535080974769        2.69941737161082
