  25
        -42.17584920
 C          3.2293307386        1.1311909408        0.0337056266
 N          2.2794513760        0.0519144199        0.0160559688
 C          2.5597221462       -1.2582195918        0.0076865974
 N          1.4076658273       -1.9724526242       -0.0078616042
 C          0.3655184546       -1.0862219987       -0.0079599801
 C          0.9106181510        0.1942087625        0.0063891805
 C          0.1066706946        1.3831111608       -0.0188638263
 O          0.4860977900        2.5357656463       -0.0429874760
 N         -1.2668627315        1.0469103522       -0.0105617064
 C         -2.2241901540        2.1402728431       -0.0051006916
 C         -1.7592576530       -0.2100896418        0.0076234100
 O         -3.0789139104       -0.3429586250        0.0770541848
 N         -0.9824545474       -1.3352266576       -0.0334858646
 C         -1.5165217581       -2.5874857745       -0.0326048850
 H          3.7924108775        1.1267088937        0.9678942468
 H          3.9270438041        1.0337810069       -0.7979761058
 H          2.6865883869        2.0718291181       -0.0525447310
 H          3.5419584429       -1.6829444702        0.0103100861
 H         -1.6547412170        3.0673352878       -0.0143549347
 H         -2.8633626561        2.0835611853       -0.8844792760
 H         -2.8451631194        2.0904689113        0.8880300232
 H         -0.8584998904       -3.4179130491        0.0602266958
 H         -2.5058935076       -2.7573080077       -0.4057951044
 H         -3.3127079247       -1.2549264833        0.3263652434
 H          1.3464499304       -2.9785753229       -0.0314709268
