  25
        -42.16926269
 C          2.7340051539        1.1695411201       -0.7035228063
 N          1.9592852296        0.0245761549       -0.3082818441
 C          2.3967564973       -1.2232976555       -0.2718082077
 N          1.4045711538       -2.0296799520        0.1291254130
 C          0.2828853128       -1.2702761690        0.3721624612
 C          0.6417264023        0.0450908117        0.0784256756
 C         -0.0997544793        1.3047992854        0.2918219208
 O          0.4669275956        2.2834903021        0.7255756149
 N         -1.4601396164        1.3041971979        0.0236475069
 C         -2.2374268871        2.4188924300        0.5478433484
 C         -2.0471980892        0.4524890498       -0.8770114748
 O         -1.4836542465       -0.4197814406       -1.4847286258
 N         -0.8517203379       -1.7056206579        0.9382224089
 C         -1.5094585029       -2.7573704849        0.6952649978
 H          2.6373302322        1.9539808481        0.0480913868
 H          3.7775188474        0.8839893908       -0.8116853025
 H          2.3673292812        1.5625667784       -1.6528336922
 H          3.3909244201       -1.5431459177       -0.5183339539
 H         -1.6575217343        2.9057977596        1.3282559903
 H         -2.4495549810        3.1475382022       -0.2350848610
 H         -3.1724978915        2.0472672878        0.9620900955
 H         -2.3539839216       -2.9721645156        1.3329274126
 H         -1.3041399756       -3.4370999713       -0.1291905463
 H         -3.1163408000        0.6717268174       -1.0037803583
 H          1.4760124215       -3.0285043598        0.2660474940
