  72
        -99.29341074
 N         -1.9922171051        2.8105590855        2.5920612620
 C         -1.8899145465        2.1918508741        1.5122917132
 C         -2.9847613340        2.0696733698        0.4884716155
 C         -3.4836600372        0.6336172799        0.4428507495
 C         -4.3214149461        0.2229820302       -0.5962610234
 C         -4.8175402635       -1.0683784864       -0.6586041706
 O         -5.6296662390       -1.5457585375       -1.6245223614
 C         -6.0979801479       -0.6736063995       -2.6259182081
 C         -4.4685891929       -2.0020712178        0.3544440305
 O         -4.9945050225       -3.2353110166        0.2120174088
 C         -4.7712105347       -4.1955450313        1.2179277917
 C         -3.6408739992       -1.5868413543        1.3851136377
 C         -3.1551218048       -0.2856224466        1.4270945069
 C         -2.3393663020        2.4569037401       -0.8675451071
 C         -1.4015625824        1.3880260291       -1.4580969346
 C         -0.0976995499        1.2800152425       -0.7658408677
 N          0.4932219493        0.1462552233       -0.4038574536
 C          1.8910251248        0.1262143729       -0.0501266574
 C          2.7515309997       -0.4404313477       -1.2029921616
 C          4.2058492049       -0.2931215507       -0.8994180038
 C          4.8947881102        0.8802589647       -1.1358945442
 C          6.2051964196        1.0617692771       -1.0709273790
 C          7.1008135047       -0.1643627350       -0.9355474364
 O          8.3073894799        0.1314307833       -0.3010760677
 C          8.2113412035        0.5626515171        1.0393748712
 C          6.3132677996       -1.3016569455       -0.2779952196
 O          7.1300538005       -2.2528286850        0.1829021585
 C          6.5942712944       -3.4352597343        0.7377023489
 C          4.9469541031       -1.3306253684       -0.2723018505
 C         -0.1831730528       -1.1270446590       -0.4707320349
 C         -4.2052422660        2.9948061465        0.7765979896
 C         -4.9318864052        2.5835818798        2.0549338949
 C         -3.8332537663        4.4730089444        0.8495815905
 H         -4.6011805398        0.9294507383       -1.3598814941
 H         -6.6589111242        0.1633198160       -2.1993590639
 H         -6.7619550967       -1.2722199772       -3.2463786036
 H         -5.2779811752       -0.2901412509       -3.2420521350
 H         -5.1496010931       -3.8561859477        2.1866458977
 H         -5.3227242709       -5.0798160337        0.9047717197
 H         -3.7088991862       -4.4446085226        1.3072103074
 H         -3.3738136564       -2.2679273803        2.1766716026
 H         -2.5363183411        0.0091786305        2.2604396470
 H         -3.1312367234        2.6480307180       -1.5908149542
 H         -1.7820404481        3.3854633964       -0.7385081575
 H         -1.9166295238        0.4301197307       -1.5000294911
 H         -1.1878486373        1.6983317776       -2.4894162256
 H         -0.9583900698        1.6991891542        1.1705629604
 H          0.4978365308        2.1778451542       -0.6868989535
 H          2.0302802053       -0.4855406361        0.8455876135
 H          2.2258962738        1.1419935642        0.1682559026
 H          2.5186050545        0.1223956479       -2.1094636929
 H          2.5041272486       -1.4903291662       -1.3640158787
 H          7.4071833821       -0.5240505558       -1.9322184341
 H          6.7023649035        2.0157974836       -1.1150792586
 H          7.7154948680       -0.1820388403        1.6700088548
 H          7.6695287060        1.5116137333        1.1181335721
 H          9.2351367482        0.6998651728        1.3808642554
 H          7.4526853532       -4.0421520455        1.0186415953
 H          5.9928757504       -3.2196664123        1.6257157621
 H          5.9884420647       -3.9762763111        0.0056399185
 H          4.4126126195       -2.1773359699        0.1319758205
 H         -0.2880669113       -1.4700150162       -1.5027127852
 H         -1.1757869775       -1.0540452405       -0.0213763409
 H          0.3918995193       -1.8655622997        0.0829910960
 H         -4.8983557733        2.8600226803       -0.0619159267
 H         -4.2777075152        2.7093279146        2.9115830739
 H         -5.2576443326        1.5473913516        2.0072864849
 H         -5.8082690127        3.2113133672        2.1927668974
 H         -3.1290181931        4.6451141930        1.6577023625
 H         -3.4049931742        4.8317423053       -0.0825597609
 H         -4.7283819794        5.0558372914        1.0501818134
 H         -1.1771758707        2.8526355162        3.1957627982
