  25
        -42.11602667
 C          3.3883516438        0.1832914464        0.0843708680
 N          3.3924496421       -1.2562355478       -0.0023584746
 C          2.4155059618       -2.0999775548       -0.0321817337
 N          1.1016780278       -1.9311012941       -0.0182722875
 C          0.2952580844       -0.7903658863       -0.0112424323
 C          0.8023467865        0.4661783994       -0.0294671115
 C          0.0210309366        1.6555530125       -0.0228218609
 O          0.4325820705        2.7939968707       -0.0278604072
 N         -1.3631796360        1.3794992878       -0.0091979526
 C         -2.2837409532        2.4992679780       -0.0041293006
 C         -1.9296953668        0.1274206179        0.0057315402
 O         -3.1267618841       -0.0272101623        0.0208368098
 N         -1.0635967530       -0.9758884843        0.0044523442
 C         -1.6754325464       -2.2898605683        0.0220659693
 H          3.7734719003        0.5349367979        1.0409371211
 H          3.9188014654        0.6397329287       -0.7500799238
 H          2.2282656652        0.5177976511        0.0181573964
 H          4.3322723410       -1.6567355283       -0.0301507274
 H         -1.6996793810        3.4188832881        0.0026226625
 H         -2.9211684165        2.4632631976       -0.8898978411
 H         -2.9249536738        2.4506389256        0.8781681849
 H         -1.3894804231       -2.8447393141        0.9178796293
 H         -1.4245462742       -2.8530841022       -0.8792080542
 H         -2.7564627983       -2.1391650472        0.0417111200
 H          0.5837260416       -2.8050136058       -0.0328896954
