25
 energy: 118.485872301486 xtb: 6.6.1 (8d0f1dd)
C            3.28484699638275        1.14504325975880        0.12591919958877
N            2.31338765294427        0.08312146636644        0.07068915491361
C            2.65636028165786       -1.19815730862365        0.08466815968635
N            1.55658809588315       -1.98207922255992        0.06161924371130
C            0.39531705628825       -1.15521569099375        0.04318708134648
C            0.92733429658935        0.16332717030154        0.06133635851897
C            0.07831205489154        1.31336968218361       -0.01990083699689
O            0.53814990472029        2.45338860750052       -0.05254936483578
N           -1.48178681584031        1.03507198100075       -0.01739666105981
C           -2.16630279749649        2.30846370830625        0.18384226593841
C           -2.85336163901990        0.51563208910888       -0.92330413088486
O           -3.62000869643085       -0.36544476560922       -0.97949109013402
N           -0.84020438537029       -1.41830986438169        0.00306381540805
C           -1.31094240601602       -2.76132746806919        0.03064715236258
H            3.78370630028348        1.15349438212346        1.09797597861265
H            4.04800913725843        0.99109962725902       -0.64133585876992
H            2.79462375155975        2.10131289000243       -0.03748527743566
H            3.66374137583223       -1.57446840716809        0.07080423893905
H           -1.82350617775714        3.09221086599115       -0.49589334963637
H           -3.22970605299910        2.08455287943776        0.01961381469981
H           -2.09059424529358        2.59239739001362        1.21873425811520
H           -0.88431474554909       -3.27252123054860        0.89468927612658
H           -1.02619096896453       -3.29465181806904       -0.87912138370527
H           -2.39811096424154       -2.77913795194250        0.12152660707108
H            1.56174241172524       -2.98352030700060        0.05378382174073
