25
 energy: 36.773399520210 xtb: 6.6.1 (8d0f1dd)
C            3.05360989242146        1.22198456076104        0.09812451741773
N            2.21193021329799        0.06352503992343        0.00037992413428
C            2.61898673223643       -1.26338000525502        0.17727011873640
N            1.45530323859394       -2.03701896831601        0.01422812519670
C            0.37894838380672       -1.21042822260989       -0.02331798677795
C            0.81892466864399        0.09342386678107       -0.01849593837146
C           -0.04140811090647        1.22161027780015       -0.07323496639439
O            0.42142936892014        2.36411984253021       -0.16881078281886
N           -1.44211114912900        1.01325514359954       -0.01509651974950
C           -2.09209827082790        2.63673946300822        0.01214148351802
C           -1.91779764192039       -0.33656370439014       -0.02658364451022
O           -3.08454191049356       -0.65876652348687       -0.03251966106441
N           -0.95398384886902       -1.45498713130428       -0.04346085323017
C           -1.35048754977735       -2.84829706274123       -0.06370581036294
H            3.31768040300009        1.43859293972622        1.13470799909177
H            3.96761808324215        1.05984433289312       -0.44753383388230
H            2.43915842860801        2.04772957107917       -0.28846572172657
H            3.58612018658828       -1.56917369021826       -0.19649560661379
H           -1.20365683905990        3.27347138207591        0.07549530971335
H           -2.63645782275106        2.82128197568467       -0.90195914006337
H           -2.71238662704381        2.79063505483835        0.87621782236166
H           -0.95101490639476       -3.36021157838795        0.82052191446886
H           -0.92578176951111       -3.34262554056967       -0.94490509210184
H           -2.44542975051177       -2.86414161254153       -0.08046100164765
H            1.49242306053880       -3.04274311846587        0.00056925956434
