25
 energy: 5.920633270758 xtb: 6.6.1 (8d0f1dd)
C            3.12683160283177        1.21742831983642        0.09892957523115
N            2.24880043809171        0.08965003519883        0.00898504106309
C            2.58985422022773       -1.25342515239413        0.07551891384127
N            1.41941839093942       -1.99720084800853        0.00052492065277
C            0.37199581431842       -1.14247165135335       -0.02144234267082
C            0.85351889502653        0.15407730376992       -0.00916041947927
C            0.02426209503849        1.28433059882058       -0.03441210460708
O            0.45372432657830        2.44395071403796       -0.06415672650413
N           -1.39982503413111        1.03914146353094       -0.03151808090041
C           -2.12064959562883        2.39007849854956       -0.01878299274454
C           -1.91090623300194       -0.25577520832198       -0.04633121709619
O           -3.08839846338676       -0.53359017174325       -0.06638458250424
N           -0.97223267292905       -1.37461570483148       -0.04455569732245
C           -1.40956721170157       -2.75367733073368       -0.06208613830441
H            3.51268897762167        1.36653089732528        1.11061564777304
H            3.95714864012123        1.10895055042474       -0.57358454124286
H            2.52965703156999        2.09010071346356       -0.18154390905334
H            3.58850850633509       -1.60637533753282       -0.07608616595541
H           -1.32652090197873        3.13317804123112        0.01261169137060
H           -2.73212874877104        2.51197940185327       -0.92085095802757
H           -2.78412222141043        2.48184661836484        0.84324233002958
H           -1.04999392252224       -3.28743705537021        0.82480361360603
H           -1.02479154848194       -3.27051593006850       -0.94765855000732
H           -2.50017931065060       -2.73281969879233       -0.07825023575286
H            1.41104251662090       -3.00809833747182       -0.00097182917978
