25
 energy: 56.992523731439 xtb: 6.6.1 (8d0f1dd)
C            2.98381759304800        1.21120691948868        0.07533551412166
N            2.20354903723440        0.00017962812545        0.03837641312934
C            2.65616522531015       -1.26077082950373        0.08669931728432
N            1.57911419690536       -2.10308731613711       -0.00331407068749
C            0.43530021091018       -1.34116946406781       -0.01976393187576
C            0.83894352391431       -0.02378993285118        0.02332473702503
C           -0.17179305590940        1.05950639925168       -0.07001520326308
O            0.21607118259039        2.20666499684234       -0.20405664090151
N           -1.42799566898843        0.65576328677556       -0.03917711841578
C           -2.25242641263018        3.48658866308743        0.04204330775589
C           -1.86016267447996       -0.58522411944470       -0.03397600550472
O           -3.00682932909453       -0.94828830640372       -0.03602270385220
N           -0.84215614379257       -1.69874922130796       -0.04533567626680
C           -1.25781530432986       -3.07407698147086       -0.07402971511514
H            3.04306384126201        1.61093010991007        1.08797118565441
H            3.97310912740883        1.02961723319147       -0.32975736875815
H            2.47523497418559        1.96508735031297       -0.51918589757939
H            3.67446069687625       -1.55264309676665       -0.11231122409316
H           -1.24592839502979        3.81226107690440        0.13546529815105
H           -2.70440052168065        3.44739878414394       -0.91737087752222
H           -2.86723880275938        3.36569366162067        0.90358010530195
H           -0.89670022116084       -3.59320735363012        0.81612436624135
H           -0.86027104609722       -3.56615323718255       -0.96498914467842
H           -2.35722596114560       -3.07425951896563       -0.09120414967042
H            1.63825874634349       -3.10843424842440        0.01635744299982
