  72
        -99.36658629
 N         -1.6523586804        2.6550644956        2.6055067988
 C         -1.7337630408        1.9210075859        1.5980621759
 C         -2.8811848827        1.9342713029        0.6256720019
 C         -3.4332297213        0.5250091429        0.4891014961
 C         -4.2894969830        0.2040879817       -0.5660967059
 C         -4.8349583704       -1.0625243460       -0.6951966530
 O         -5.6688429787       -1.4558472212       -1.6820200016
 C         -6.1229247677       -0.5083199101       -2.6188762351
 C         -4.5198021090       -2.0620372651        0.2638203282
 O         -5.0923687725       -3.2662155813        0.0590452915
 C         -4.9129281657       -4.2798298214        1.0206013156
 C         -3.6785539539       -1.7335323273        1.3146337987
 C         -3.1469851665       -0.4559645245        1.4257171608
 C         -2.2799937592        2.4296273952       -0.7175484775
 C         -1.4359394068        1.3898812051       -1.4710627765
 C         -0.1497207881        1.0806565392       -0.8110688006
 N          0.4137319971       -0.1198048022       -0.7863209686
 C          1.7118105328       -0.2759497180       -0.1600995066
 C          2.8053473657        0.3530456661       -0.9821366555
 C          4.1295940087        0.1196225061       -0.8570202194
 C          5.0806696262        0.8863648340       -1.7384677867
 C          6.5221032076        0.7308059132       -1.3974449030
 C          6.9692585658       -0.1408298822       -0.4741600431
 O          8.2503326257       -0.3443290222       -0.1072374018
 C          9.2538649179        0.4514835587       -0.6938828102
 C          6.0176247100       -0.9907306751        0.2425994862
 O          6.6043423767       -1.8774453539        1.0548152311
 C          5.8136894460       -2.7999544391        1.7672862495
 C          4.6770852319       -0.8306676866        0.0612889070
 C         -0.2071991805       -1.2631274643       -1.4087423425
 C         -4.0522091275        2.8696976330        1.0490905412
 C         -4.6592328304        2.4356129406        2.3810077259
 C         -3.6564949478        4.3422475490        1.1216666677
 H         -4.5458641764        0.9625081982       -1.2874832602
 H         -6.6471231968        0.3191179524       -2.1313574584
 H         -6.8175290343       -1.0446408017       -3.2623604753
 H         -5.3007347395       -0.1149063192       -3.2260121324
 H         -5.2791928056       -3.9687307891        2.0034357049
 H         -5.5005680091       -5.1248366676        0.6674417943
 H         -3.8624967862       -4.5778841927        1.0999416954
 H         -3.4392745107       -2.4644515426        2.0697987941
 H         -2.5249072436       -0.2296896162        2.2778034650
 H         -3.0969027458        2.7361734882       -1.3705883799
 H         -1.6697348921        3.3113909031       -0.5189258282
 H         -2.0245092801        0.4859565718       -1.6235071689
 H         -1.2170950113        1.8143989635       -2.4604511346
 H         -0.9412298943        1.2161070319        1.2825776899
 H          0.4335270438        1.8974367899       -0.4140820627
 H          1.8981658663       -1.3406739903       -0.0105936649
 H          1.6822246500        0.1965322734        0.8325202450
 H          2.4679748604        1.0843295520       -1.7016995354
 H          4.9316124907        0.5769089641       -2.7797967022
 H          4.8272254245        1.9520893745       -1.7056077721
 H          7.2018421281        1.3539516815       -1.9553723229
 H          9.0767566602        1.5149915278       -0.5069603563
 H          9.3228969278        0.2774742027       -1.7719044667
 H         10.1847400479        0.1493519097       -0.2183449389
 H          6.5156033375       -3.4345695185        2.3045880659
 H          5.1584726892       -2.2959049908        2.4841307035
 H          5.2129677900       -3.4146864923        1.0898039001
 H          3.9894478178       -1.4334181698        0.6318522904
 H         -0.4547834604       -1.0506295639       -2.4498776496
 H         -1.1236172200       -1.5423196369       -0.8806944572
 H          0.4771902750       -2.1068915397       -1.3876537635
 H         -4.8237887358        2.7609279923        0.2774657787
 H         -3.9372868873        2.5684451188        3.1806269727
 H         -4.9691171055        1.3937589490        2.3516457432
 H         -5.5319310908        3.0451357017        2.5997369647
 H         -2.8454590047        4.4777228535        1.8300122703
 H         -3.3578222369        4.7326868613        0.1525732385
 H         -4.5093719435        4.9223946490        1.4642579473
 H         -0.8148850617        2.5882251545        3.1756100811
