25
 energy: -42.172790461603 gnorm: 0.006841102293 xtb: 6.6.1 (8d0f1dd)
C            4.83311313248146        0.35152482894737        0.08350875026509
N            3.96401719386383       -0.51471795746616       -0.16759479603421
C            3.14607628117067       -1.48548481074656       -0.00240959700195
N            1.81740154669178       -1.35812274443922       -0.00865327415632
C            1.14614777797758       -0.15434633433058       -0.04068824275638
C           -0.19242783833350        0.02561005123312       -0.02947113080986
C           -0.75678577923198        1.41219041062102       -0.06143341098021
O           -0.14569133564131        2.44772333443128       -0.09209717821020
N           -2.11554864445517        1.23820095317208       -0.03781271969098
C           -3.08585688688939        2.30528035837441       -0.05764197597401
C           -2.45644135605259       -0.10198475296094        0.00883803536036
O           -3.55214243418425       -0.57916501664507        0.04721578187946
N           -1.25627404589687       -0.82733710515494        0.01120698836731
C           -1.27754336176142       -2.26701605431097        0.05394465432448
H            5.11930132568112        0.60700146694476        1.10006535996789
H            5.31078291875945        0.87513439292773       -0.73439857476254
H            1.77265092535457        0.72253444291833       -0.07976209665100
H            3.55110163371684       -2.49266013682555        0.01971561902781
H           -2.57194412708212        3.23315421004301        0.18622744781094
H           -3.53912683525482        2.38725416346730       -1.04685244040013
H           -3.86791336794306        2.09630611715112        0.67120183053298
H           -0.79276075869926       -2.64296243085321        0.95736144566400
H           -0.81860661529544       -2.69539926546611       -0.83966026771685
H           -2.32784552259365       -2.56256713381399        0.07779509408467
H            1.25674768771830       -2.20191244560750        0.01256631575601
