25
 energy: -42.044416067346 gnorm: 0.007504290564 xtb: 6.6.1 (8d0f1dd)
C            2.93003001684518        1.16405503359241       -0.14967465155171
N            2.04549680020092        0.03475592975792       -0.13007869352177
C            2.36854760767314       -1.23313572914675       -0.37034014754822
N            1.28065933153266       -2.00113338098332       -0.28627133008949
C            0.18295034304146       -1.23065816651613        0.05698088006453
C            0.66685477955958        0.11391751577109        0.14145462348650
C            0.06684534494699        1.29536817158711        0.41162014857786
O            0.45707390479231        2.56600982171468        0.64513228869876
N           -0.88810654770213        2.07576969303487        0.99335565892377
C           -1.97238112165400        2.64824261779093        0.24208702785833
C           -1.85740149702742       -1.13425468942165       -1.03598011010669
O           -1.92449525620298       -0.12827425458059       -1.64806058266534
N           -1.12374761210791       -1.69900559965219       -0.10044254066880
C           -1.51597211445984       -2.96642948754436        0.50551543220503
H            2.90894462352559        1.67740840841765        0.81358303087102
H            3.94292343455775        0.82806689748197       -0.35956672592517
H            2.61755332698002        1.87608461904483       -0.91607329094585
H            3.35927052990285       -1.58611299048984       -0.57782002606319
H           -2.25753600399184        3.57762187962512        0.73049716695000
H           -1.72251626195619        2.83932863540787       -0.80406315571821
H           -2.80118796150774        1.94453468334760        0.29464376122130
H           -1.06834725836665       -3.03539385240859        1.49498162040157
H           -1.20197120758831       -3.81809251022681       -0.10114348403413
H           -2.59874014786474       -2.98960714723476        0.60179013671158
H            1.26568446097065       -3.00082755676862       -0.42095541923179
