25
 energy: 0.000000000000 xtb: 6.6.1 (8d0f1dd)
C            3.23720132972391        1.16630909158653        0.08434468864950
N            2.29877796055224        0.07527476373246        0.03981602671198
C            2.58028186251803       -1.21425391179017        0.03006175752192
N            1.43813944744728       -1.93419254010258        0.00098261751768
C            0.39035684826767       -1.05887462812143       -0.00790371763344
C            0.93510047688824        0.21347817468824        0.01709077332874
C            0.09450143016486        1.40504290868848       -0.00410946993748
O            0.49712746915594        2.54126690785742       -0.00342325656480
N           -1.25076628431515        1.06271869620815       -0.03085477937476
C           -2.21907191394203        2.15522079838987       -0.05001256521996
C           -1.81739470187490       -0.20012724136556       -0.04692818139228
O           -2.99983858926755       -0.37846413507442       -0.07008877579474
N           -0.92618577614240       -1.30210203518959       -0.03682761236648
C           -1.46982251276835       -2.64643077634382       -0.06029819901142
H            3.71247229913541        1.21471443890471        1.06488839270555
H            4.00791460421487        1.03430799217987       -0.67357688121503
H            2.69909982127087        2.09770098766290       -0.09130154035862
H            3.56654087521359       -1.63682977417947        0.04233139674524
H           -1.67107945562430        3.09322822573871       -0.02552706696334
H           -2.82428927394145        2.09428605349656       -0.95318074103337
H           -2.87644002486466        2.07745706351925        0.81450059976605
H           -1.17061985538665       -3.19584861009707        0.83242224714061
H           -1.14560246782873       -3.17511580834413       -0.95688266944647
H           -2.55549768731684       -2.55659960601237       -0.07459039105944
H            1.38130842369251       -2.94313824728853       -0.01389874052104
25
 energy: -0.142980829982 xtb: 6.6.1 (8d0f1dd)
C            3.23294854584796        1.18075360916994        0.08492748489444
N            2.29525026999641        0.08948708475868        0.03701467932892
C            2.58833795120896       -1.24407179381535        0.03087960051891
N            1.44089810526555       -2.00762766015496        0.00209577051854
C            0.40371011396149       -1.08518786860742       -0.00908999243321
C            0.92149585717307        0.21206541073781        0.01409559288898
C            0.09573229461549        1.40234431275649       -0.00535628367679
O            0.49160353643207        2.56980499472627       -0.00321412061549
N           -1.26724709289789        1.06801485286894       -0.03141485715289
C           -2.23291412383632        2.16582385907247       -0.04896801326856
C           -1.82231733857810       -0.18632999279609       -0.04838132612124
O           -3.01934721783083       -0.36626812468638       -0.07174440318710
N           -0.93290001150170       -1.29420276519965       -0.03802428007342
C           -1.46945276423054       -2.62924027395408       -0.06117427244595
H            3.71754320549982        1.23133995625131        1.06429871979085
H            4.00354414008454        1.04958599786562       -0.67669679503425
H            2.70266457948290        2.11718793306441       -0.08884113983767
H            3.57112583434244       -1.64483479991300        0.04542854358564
H           -1.68356624094857        3.10503042334520       -0.02370071914656
H           -2.84218125670488        2.11383556983629       -0.95148700808490
H           -2.89392471458134        2.09511992503372        0.81487407490569
H           -1.15166480313718       -3.17015298866477        0.83131073884251
H           -1.12689870363195       -3.14950727974007       -0.95687330659412
H           -2.55442775331956       -2.54369293559543       -0.07545162178097
H            1.44420189226062       -3.09024865761595       -0.00747315362678
25
 energy: 11.699198447625 xtb: 6.6.1 (8d0f1dd)
C            3.22766334896926        1.18709315359991        0.08448318031209
N            2.28857400052240        0.09606771705476        0.03306211220234
C            2.58771328104558       -1.26691579559001        0.03317238434123
N            1.44068177890635       -2.07751818177936        0.00397651013697
C            0.41461916723054       -1.11363669521018       -0.00977627932773
C            0.90573602862259        0.20143774439159        0.01042270182876
C            0.09568420868755        1.38898036898548       -0.00678491673514
O            0.48006333677720        2.56995854383036       -0.00278544021957
N           -1.28770006540119        1.08031470944879       -0.03212918265112
C           -2.24817348809951        2.18389468507115       -0.04772153844075
C           -1.82484104470734       -0.16637652176120       -0.04979983686842
O           -3.02667449885927       -0.35396764056387       -0.07401075668400
N           -0.94045922327111       -1.27617983666185       -0.03904513387079
C           -1.46845078518952       -2.60656569131220       -0.06231505033427
H            3.72054292016768        1.24427368680264        1.06183970278874
H            3.99811301248734        1.06487243602556       -0.68123429670357
H            2.70305143619465        2.12917609429338       -0.08546684266208
H            3.57428163026223       -1.64001763602263        0.05014727158168
H           -1.69797647611319        3.12374843551861       -0.02127697872744
H           -2.86150962101244        2.13813538912966       -0.94913303056249
H           -2.91263873928651        2.11678039178674        0.81505561100721
H           -1.13232065269962       -3.14075592322728        0.82876580882240
H           -1.10772091628227       -3.12013774374314       -0.95603238302219
H           -2.55309911414861       -2.53493260213224       -0.07672242387624
H            1.53705478016964       -3.23870029919065        0.00034271985889
25
 energy: 21.160094908700 xtb: 6.6.1 (8d0f1dd)
C            3.22558880195410        1.18765753264816        0.08380223975943
N            2.28712501076167        0.09607474083636        0.03137679844795
C            2.58383907408678       -1.27605335159313        0.03547788161247
N            1.43783661958086       -2.10427546144521        0.00510524941346
C            0.41781124584755       -1.12415596633002       -0.00902121142470
C            0.90047742353389        0.19479119195322        0.00945718454360
C            0.09573883417003        1.38371863516099       -0.00698165908465
O            0.47477193552839        2.56475452270398       -0.00279799880682
N           -1.29794492861110        1.09157303595409       -0.03249472258609
C           -2.25638865621736        2.19553361195213       -0.04734235579706
C           -1.82712089442414       -0.15569292816166       -0.05046620147650
O           -3.02812462807152       -0.35216732896717       -0.07570662378320
N           -0.94320974850031       -1.26235148888395       -0.03901147315793
C           -1.46652350462500       -2.59500998255557       -0.06267756995884
H            3.72064679506312        1.24778675152798        1.06004169853766
H            3.99445304574021        1.07191207883947       -0.68463370610937
H            2.70099866077294        2.13172013774129       -0.08345756884424
H            3.57622921574907       -1.63545444701483        0.05286785836853
H           -1.70739591687058        3.13577798421020       -0.02014627447303
H           -2.87090989996168        2.15030250150280       -0.94829964112793
H           -2.92191512252074        2.12745180465794        0.81492555053859
H           -1.12217438894848       -3.12545980603724        0.82766101835376
H           -1.09744311333791       -3.10473455808690       -0.95537267441274
H           -2.55137989891772       -2.53511590902080       -0.07734378024383
H            1.58722834319039       -3.31955451284809        0.00207189390606
25
 energy: 27.499347398410 xtb: 6.6.1 (8d0f1dd)
C            3.22620530835258        1.18791204918913        0.08370124953611
N            2.28834102837749        0.09621952919577        0.03060783331850
C            2.57947994543359       -1.27776680955195        0.03683578706337
N            1.43315595419499       -2.10776471427693        0.00543348832710
C            0.41689997983162       -1.12378221478809       -0.00860518371322
C            0.90015747232356        0.19398225647246        0.00928887208874
C            0.09588133954440        1.38458330054947       -0.00688722959439
O            0.47187549053689        2.56350336086765       -0.00269871015641
N           -1.30151267493994        1.09805500835198       -0.03266166402163
C           -2.25951873679345        2.19993947355875       -0.04736144865582
C           -1.82943333995167       -0.15147534464830       -0.05073724091807
O           -3.02880134312264       -0.35323089119915       -0.07631329590363
N           -0.94446167519287       -1.25376282352051       -0.03888342098384
C           -1.46507166778032       -2.59043881385682       -0.06263019526911
H            3.72108698517403        1.24850508629433        1.05957926870759
H            3.99395399302120        1.07453053024829       -0.68568292534068
H            2.70096502274578        2.13250480407982       -0.08269549000597
H            3.57477644198433       -1.63197621048149        0.05305616918524
H           -1.71178731800172        3.14045965539547       -0.01996310522677
H           -2.87384132030354        2.15335057750188       -0.94843351406427
H           -2.92491549939441        2.13008328701252        0.81497558144893
H           -1.11794557660482       -3.11897437313420        0.82739822788875
H           -1.09337938591354       -3.09817791063274       -0.95498887912771
H           -2.54989845062869       -2.53677079967478       -0.07731510504338
H            1.61000233207959       -3.37047922420857        0.00201484265513
25
 energy: 35.625181822674 xtb: 6.6.1 (8d0f1dd)
C            3.22805162609918        1.18969193163299        0.08393521775444
N            2.29127206037925        0.09788170327627        0.02963590265971
C            2.57277840193654       -1.27568386677388        0.03878645894214
N            1.42510472985844       -2.09820524508905        0.00549308013412
C            0.41306410914035       -1.11695749395248       -0.00846911954567
C            0.90168990850285        0.19736401688844        0.00912553651604
C            0.09588357961375        1.38945440506076       -0.00696236916595
O            0.46816185621278        2.56560717160233       -0.00236316609604
N           -1.30331389663677        1.10397489970482       -0.03290975550929
C           -2.26137273903922        2.20247801209633       -0.04744935384777
C           -1.83309143692740       -0.14858539002530       -0.05091231365183
O           -3.03020065973218       -0.35372663795244       -0.07648243180522
N           -0.94638014284939       -1.24426933296233       -0.03882825814243
C           -1.46362656942553       -2.58687361819371       -0.06249765327773
H            3.72173940001282        1.24997339550935        1.05980355212789
H            3.99503309898338        1.07708112908205       -0.68558051317210
H            2.70221361228010        2.13442659180736       -0.08259879750236
H            3.57041047639228       -1.62687217157213        0.05148546593361
H           -1.71579225317069        3.14380100964527       -0.02004347348267
H           -2.87557388501137        2.15445965529286       -0.94862043252585
H           -2.92655227700926        2.13105890583324        0.81505776252963
H           -1.11431548287220       -3.11295230745876        0.82734878850278
H           -1.09011111135398       -3.09212022067800       -0.95472000470210
H           -2.54823176051400       -2.53796222696637       -0.07707065812588
H            1.63537366010275       -3.45401552706356        0.00187044764713
25
 energy: 33.001511943273 xtb: 6.6.1 (8d0f1dd)
C            3.23161831885746        1.19547278469725        0.08445139687705
N            2.29278447070652        0.10773302314736        0.02746206506747
C            2.54487032064646       -1.26503280151225        0.04267287256628
N            1.40083859944534       -2.07382136402944        0.00484766525990
C            0.40347586529663       -1.09638077066973       -0.00809311491345
C            0.89995700891664        0.21229013694066        0.00860098292193
C            0.09576813139976        1.40448140856214       -0.00708162777690
O            0.45467414387374        2.57379608462687       -0.00174953931230
N           -1.31036874696308        1.12363152269589       -0.03340761967390
C           -2.26709498459979        2.21273929277318       -0.04749627218610
C           -1.84053507879534       -0.13760838202185       -0.05119560481554
O           -3.03235513504146       -0.35193644481240       -0.07699958303764
N           -0.95274456663116       -1.21416142437060       -0.03862952772584
C           -1.46051235944637       -2.57381247189365       -0.06236810736302
H            3.72279927280396        1.25301044908692        1.05990006563689
H            3.99550334983657        1.08205694012706       -0.68618102544972
H            2.70705266481380        2.14257283917952       -0.08208124105522
H            3.55086772762372       -1.60737699515840        0.04890928160540
H           -1.72447217134195        3.15451696672059       -0.01988872161056
H           -2.88044206856973        2.16033708599565       -0.94918691855101
H           -2.93130312818661        2.13640668893408        0.81565338259349
H           -1.10476955371226       -3.09632642656941        0.82512157486540
H           -1.08119585403549       -3.07541956570394       -0.95229124212209
H           -2.54475371219217       -2.53953961451299       -0.07690310499071
H            1.74255179026722       -3.73860017348847        0.00296787538479
25
 energy: 24.957715881379 xtb: 6.6.1 (8d0f1dd)
C            3.23349415364787        1.19936753515334        0.08466429525503
N            2.28749967323713        0.11553512208329        0.02822913206714
C            2.49932232636087       -1.24434869459245        0.04211864892317
N            1.37463585815044       -2.02242012461237        0.00495559693781
C            0.39345313653120       -1.06089707730404       -0.00773718743330
C            0.89946445343570        0.23775632768190        0.00896614655250
C            0.09252441371062        1.42928926882444       -0.00694172801570
O            0.43997532366042        2.58482535142045       -0.00147036226437
N           -1.31011036494576        1.14386998150133       -0.03371664773386
C           -2.26999774015655        2.22172689196697       -0.04752454018156
C           -1.84364152942592       -0.13171303805342       -0.05140075511859
O           -3.03090205423834       -0.34660261903085       -0.07723169519973
N           -0.95485620238948       -1.18642020333654       -0.03856008854342
C           -1.45647335984757       -2.56302316386268       -0.06226386805467
H            3.72217922075274        1.25336574595714        1.05905534751119
H            3.99455040410431        1.08326405106981       -0.68615353216707
H            2.71315452452351        2.15025837732495       -0.08196850412601
H            3.51582697470443       -1.58910660153406        0.04702010321299
H           -1.73234375215650        3.16505918595266       -0.01977859277218
H           -2.88296286571790        2.16437607264920       -0.94921155678734
H           -2.93369447558987        2.14003761665697        0.81569037871744
H           -1.09533791625511       -3.08317672700699        0.82182088750976
H           -1.07229942902916       -3.06229290827155       -0.94881198539009
H           -2.54086673456735       -2.53955509554821       -0.07679858261260
H            1.86962026647270       -4.07014648634529        0.00408300190805
25
 energy: 20.655217738565 xtb: 6.6.1 (8d0f1dd)
C            3.23234211000878        1.20381607681637        0.08399866830760
N            2.27370182408158        0.12429494810737        0.03396991046492
C            2.46316340053641       -1.21134528321336        0.03431991174221
N            1.36236447678452       -1.94140505118386        0.00539530440637
C            0.38731346065785       -1.01062567734673       -0.00802882556025
C            0.89974509715520        0.27932433239997        0.01059562568192
C            0.08186646247697        1.46212113443807       -0.00666150350518
O            0.43350451419014        2.61474246702435       -0.00124836923834
N           -1.29753997751355        1.14587157384408       -0.03334105297532
C           -2.26728485131980        2.22082971912067       -0.04755002725876
C           -1.83976425676575       -0.13828301791907       -0.05099620488040
O           -3.03152684773685       -0.32843616515447       -0.07629243940837
N           -0.95266581529299       -1.18695610575926       -0.03890343966051
C           -1.45365966364099       -2.56370865450424       -0.06217233889009
H            3.72020204402084        1.25078837773334        1.05867328831069
H            3.99414003243527        1.07651811936785       -0.68467717095009
H            2.71910450961383        2.15611783511650       -0.08391107659386
H            3.47748432449412       -1.58570342089670        0.04840065508057
H           -1.73367986723149        3.16742926916414       -0.02006210095454
H           -2.88024317217975        2.16173551327635       -0.94880224478008
H           -2.93085000407819        2.13783929085339        0.81517490124791
H           -1.09462498220491       -3.08513184249419        0.82147324181854
H           -1.07147528045626       -3.06443126556358       -0.94826096374760
H           -2.53857076895419       -2.53277458451852       -0.07664605979404
H            1.95916753589166       -4.36359879996446        0.00258622333128
25
 energy: 20.055730572163 xtb: 6.6.1 (8d0f1dd)
C            3.23568025145509        1.21874528814358        0.08312074462485
N            2.26806806511760        0.14579198119105        0.03758939702600
C            2.45744865865329       -1.18303169598520        0.03276162995677
N            1.35338951453006       -1.88992530393729        0.00401564709162
C            0.37921126255776       -0.96773475272757       -0.00831539377812
C            0.89925814797602        0.31844762714365        0.01205483725995
C            0.06819827528175        1.48844272462567       -0.00565788446030
O            0.42773195201796        2.64630837337724       -0.00124383941603
N           -1.29139292721205        1.14656652725558       -0.03248012847728
C           -2.26898345390850        2.22105670755432       -0.04768836238546
C           -1.83947401977988       -0.13889259541114       -0.05019720224189
O           -3.03692693733341       -0.30621683461774       -0.07522275742168
N           -0.95836724354911       -1.18972883292564       -0.03913549032087
C           -1.45176716056439       -2.56092486623380       -0.06211642080500
H            3.72204938453588        1.25626545074785        1.05980094068357
H            3.99785505831076        1.07632053041090       -0.68348642954259
H            2.72709092473224        2.16972390940651       -0.08680074924904
H            3.46186674974714       -1.58276918769465        0.05006901926313
H           -1.73486374533160        3.16814796216178       -0.02052655038339
H           -2.87948396684521        2.15812667366809       -0.94957951177826
H           -2.93028374542120        2.13495725773847        0.81557209404944
H           -1.09552061038096       -3.08649512655132        0.82162854532033
H           -1.07224102894068       -3.06588152870757       -0.94835593517937
H           -2.53750130856476       -2.52634346372113       -0.07652162039553
H            2.01117220788864       -4.66192803616759       -0.00225066724628
25
 energy: 19.972697396262 xtb: 6.6.1 (8d0f1dd)
C            3.23838706773604        1.23190654180461        0.08363009328893
N            2.26558557104966        0.16669718429541        0.03873970635369
C            2.46601094331913       -1.16396288798322        0.03173132016710
N            1.35100011411861       -1.86807868007291        0.00382223159980
C            0.37544284682199       -0.94491043017240       -0.00834129852562
C            0.89869950165976        0.33978261044706        0.01303070687021
C            0.05925129887074        1.50156778827881       -0.00535414361797
O            0.42551927534294        2.66179245111356       -0.00200729950173
N           -1.29025628359971        1.14774581490555       -0.03214465794527
C           -2.27166639961601        2.22253235972919       -0.04784298874286
C           -1.83836972995671       -0.13674589153723       -0.05007064241444
O           -3.03804310516495       -0.29639948908402       -0.07467339807559
N           -0.96002896065776       -1.19204861967716       -0.03921151114155
C           -1.44802101369731       -2.55719851093204       -0.06192266716139
H            3.72460401930018        1.26240595828853        1.06111528092711
H            3.99962675219753        1.07884103025797       -0.68216983740836
H            2.73329115339340        2.18249266134632       -0.08707304938141
H            3.45922683148588       -1.57870788764982        0.04826464244097
H           -1.73536335382721        3.16840422599199       -0.02094653535006
H           -2.88017463946042        2.15726316916631       -0.95000882069352
H           -2.93112872912116        2.13464158579382        0.81566913474436
H           -1.09596792349955       -3.08779373435036        0.82183735757364
H           -1.07235645158175       -3.06740547244659       -0.94811814414822
H           -2.53481008533275       -2.52178197035596       -0.07649533548902
H            2.01175560519192       -4.85201101841346       -0.00442623217425
25
 energy: 19.929661147432 xtb: 6.6.1 (8d0f1dd)
C            3.23932217413817        1.23580207746649        0.08354206724391
N            2.26398099582354        0.17566759087516        0.03864336244116
C            2.47351678843592       -1.15514189966978        0.03218500262799
N            1.35715936191681       -1.86172561485158        0.00336767522908
C            0.37697488531738       -0.94129975416004       -0.00835023613570
C            0.89852833771230        0.34361647771857        0.01347682056835
C            0.05682178265526        1.50380084075162       -0.00529621457739
O            0.42555370424388        2.66417198157815       -0.00206402598992
N           -1.29060573550872        1.14746176992159       -0.03195217333860
C           -2.27259066265646        2.22262207790747       -0.04776959148044
C           -1.83676149260968       -0.13596993404276       -0.04989433421323
O           -3.03638569065049       -0.29749805772753       -0.07454575093805
N           -0.95740712390199       -1.19428562023935       -0.03918061806312
C           -1.44605862370419       -2.55602564864197       -0.06200943097887
H            3.72546973606607        1.26418650673355        1.06109985679723
H            4.00005154317739        1.07904167502817       -0.68197196050778
H            2.73630291714336        2.18696227360238       -0.08769098397630
H            3.46100420266505       -1.57613724734487        0.04938043410315
H           -1.73507236487123        3.16775416957541       -0.02091419992657
H           -2.88044943183675        2.15710312207384       -0.95000786890192
H           -2.93142000384377        2.13455390811246        0.81583755521350
H           -1.09622651619478       -3.08903538510249        0.82178484809693
H           -1.07261633515994       -3.06853198100133       -0.94839888965870
H           -2.53360679844036       -2.52024642050681       -0.07653893427454
H            1.98672865505567       -4.89781811931233       -0.00569849716560
25
 energy: 19.869148643419 xtb: 6.6.1 (8d0f1dd)
C            3.24035098914845        1.24000301839250        0.08404075028842
N            2.26257837864841        0.18583716859669        0.03821747814638
C            2.48519953944045       -1.14416100298289        0.03201745143368
N            1.37220057734737       -1.85729627696588        0.00343984638280
C            0.38150383673270       -0.94380488225959       -0.00821059639502
C            0.89845852088242        0.34333607304528        0.01390901227750
C            0.05600839977395        1.50336662282683       -0.00540306528249
O            0.42642328936482        2.66374200681494       -0.00218301091860
N           -1.29110497758407        1.14629819571422       -0.03196836358876
C           -2.27296768188175        2.22204200462477       -0.04791316383509
C           -1.83405001203640       -0.13509672272277       -0.04993503224088
O           -3.03324008768998       -0.30151748104064       -0.07455731672702
N           -0.95257278712478       -1.19775466951686       -0.03904352981463
C           -1.44449544577155       -2.55570112696777       -0.06183497379191
H            3.72655572721228        1.26629018300203        1.06158503763396
H            4.00037270319815        1.08072612088976       -0.68153516887389
H            2.73954489975477        2.19222496317742       -0.08709868829841
H            3.46648055329877       -1.57225737575558        0.04830165008545
H           -1.73461056779313        3.16672921820354       -0.02107121515640
H           -2.88039035584130        2.15670037272726       -0.95022589632774
H           -2.93145609872842        2.13422745751230        0.81573457446269
H           -1.09698563328794       -3.09086854262336        0.82216677411095
H           -1.07329196778152       -3.07050987467765       -0.94840125321433
H           -2.53276033237503       -2.51922892094416       -0.07640871093128
H            1.93446283806580       -4.92429774032633       -0.00658867723085
25
 energy: 19.808976460912 xtb: 6.6.1 (8d0f1dd)
C            3.24097866046678        1.24201209919318        0.08384183242097
N            2.26299510782801        0.18963432617964        0.03789422124280
C            2.49142315513637       -1.13893623385002        0.03300220167163
N            1.38492443888732       -1.85751791894781        0.00349907653086
C            0.38556908224492       -0.95009583970136       -0.00820521817887
C            0.89839139243749        0.33996356864070        0.01390633728010
C            0.05736105365134        1.50104648502230       -0.00543344047049
O            0.42684722667525        2.66158164394831       -0.00206763153009
N           -1.29134369270275        1.14528752530993       -0.03190264618883
C           -2.27267222905296        2.22122284149957       -0.04775232996981
C           -1.83233322037431       -0.13499706723309       -0.04982083583472
O           -3.03118768176108       -0.30491248489684       -0.07449039312217
N           -0.94952484759047       -1.19923818049987       -0.03907174719614
C           -1.44419528706615       -2.55656804024084       -0.06207291726052
H            3.72692779695878        1.26786041759916        1.06148815085733
H            4.00076277246952        1.08162005844165       -0.68177436652335
H            2.74079586142771        2.19456558479751       -0.08781108706421
H            3.47129310298923       -1.56957815201814        0.04951652192252
H           -1.73443481535310        3.16607460720128       -0.02090259977036
H           -2.88037603477511        2.15644626224415       -0.95002677505029
H           -2.93133826631357        2.13391433444502        0.81593103166455
H           -1.09693228870721       -3.09184362581598        0.82196325269291
H           -1.07332375056971       -3.07123007673524       -0.94886707825540
H           -2.53236667467967       -2.51934345244239       -0.07656663005346
H            1.89397344274584       -4.91793989339681       -0.00724301762037
25
 energy: 19.766700204028 xtb: 6.6.1 (8d0f1dd)
C            3.24104893666734        1.24251234244456        0.08428181554218
N            2.26421525897710        0.18888501914879        0.03782521863170
C            2.49183858559168       -1.13862268205690        0.03241857248262
N            1.38966727825948       -1.85925123152798        0.00377333272939
C            0.38717482551130       -0.95408063374028       -0.00820469272784
C            0.89827984778253        0.33759946440405        0.01366368162157
C            0.05887247562544        1.49941023331879       -0.00543771846199
O            0.42685685492369        2.66015223911628       -0.00206947713563
N           -1.29124267888154        1.14500215445815       -0.03206033472981
C           -2.27216684814722        2.22083213100559       -0.04796858047337
C           -1.83190589100348       -0.13545944317759       -0.04993890331441
O           -3.03074049633972       -0.30581120314756       -0.07455981397492
N           -0.94905517006216       -1.19886443566177       -0.03901059748096
C           -1.44469814628527       -2.55740578601474       -0.06177657239441
H            3.72702765779494        1.26784502445521        1.06194536272867
H            4.00070757789739        1.08274786875538       -0.68161973869751
H            2.74006246666533        2.19467896763898       -0.08680124635583
H            3.47332693849405       -1.56809878900096        0.04799321032925
H           -1.73433569894515        3.16598764801413       -0.02110599175886
H           -2.88011585769954        2.15632380868980       -0.95027743230858
H           -2.93120884312616        2.13384344401482        0.81565007578962
H           -1.09685255500873       -3.09157423224584        0.82237845669417
H           -1.07323694910608       -3.07127425897017       -0.94847061937844
H           -2.53249302789357       -2.51972796607748       -0.07629960306485
H            1.88118776328082       -4.90662089509927       -0.00729449209721
25
 energy: 19.756108497900 xtb: 6.6.1 (8d0f1dd)
C            3.24111204385450        1.24254805465991        0.08386271785612
N            2.26493588679162        0.18793039296031        0.03790874188718
C            2.49093359943763       -1.13917877555037        0.03313506618415
N            1.39007951884217       -1.86001379015034        0.00391892243018
C            0.38734837429513       -0.95494539398553       -0.00821681966700
C            0.89814190335361        0.33711699692751        0.01353877608311
C            0.05939278195312        1.49907757964714       -0.00543879678205
O            0.42667178848551        2.65994076373473       -0.00199630978832
N           -1.29122379357749        1.14514529650443       -0.03199855033391
C           -2.27208073896407        2.22079511445930       -0.04773949618133
C           -1.83195777948254       -0.13583029379808       -0.04985680515476
O           -3.03087909891746       -0.30558872320332       -0.07451094553578
N           -0.94933817789219       -1.19824555356133       -0.03909151950198
C           -1.44489595012241       -2.55769124743387       -0.06208529973705
H            3.72693733172757        1.26820949323732        1.06156161258194
H            4.00090788921217        1.08248056479598       -0.68190437492316
H            2.73972392506189        2.19429467491382       -0.08772622229489
H            3.47360323499894       -1.56743612715054        0.04934780943062
H           -1.73445755231680        3.16608047510810       -0.02087499948727
H           -2.88023033364742        2.15636956517013       -0.94998478424042
H           -2.93115371334560        2.13379043698004        0.81592515259301
H           -1.09663384314874       -3.09144836355183        0.82196059259372
H           -1.07300688810057       -3.07083262197487       -0.94884619538083
H           -2.53252671829827       -2.51996003381158       -0.07660165375852
H            1.88081061477214       -4.90357969618311       -0.00725270667820
25
 energy: 19.754535739935 xtb: 6.6.1 (8d0f1dd)
C            3.24106676160385        1.24265324668061        0.08434691516987
N            2.26532596841877        0.18747773698132        0.03792381800975
C            2.49038062787281       -1.13942841515363        0.03230317124165
N            1.38985987507788       -1.86023597464956        0.00382983221549
C            0.38731034799729       -0.95492984903344       -0.00826342666248
C            0.89801503289738        0.33716098893012        0.01342309489175
C            0.05955597767868        1.49910000461506       -0.00539358462676
O            0.42660066509441        2.66000610285413       -0.00202552194204
N           -1.29118782235197        1.14530417900364       -0.03210235958354
C           -2.27201225994828        2.22082888208680       -0.04803046589499
C           -1.83196314167640       -0.13618180143344       -0.04992028215307
O           -3.03098346664082       -0.30524708104452       -0.07453071608780
N           -0.94954032362996       -1.19788627388875       -0.03898960813859
C           -1.44499036626163       -2.55779989810466       -0.06167896231120
H            3.72701340496757        1.26774810435886        1.06201942141188
H            4.00078805944281        1.08304054608482       -0.68157169713596
H            2.73933761705960        2.19422093147563       -0.08660485138821
H            3.47367339479774       -1.56694435698131        0.04785961339551
H           -1.73440884497509        3.16612175939324       -0.02117618491769
H           -2.88006741801889        2.15632899010576       -0.95035198972310
H           -2.93121321957387        2.13388489337633        0.81555597552797
H           -1.09657119136881       -3.09111751029471        0.82247611990636
H           -1.07302207479894       -3.07089691143551       -0.94832188457892
H           -2.53257461964848       -2.51996845018208       -0.07617133707301
H            1.88182132095678       -4.90421105500070       -0.00757117735831
