25
 energy: 0.000000000000 xtb: 6.6.1 (8d0f1dd)
C            3.23720163006194        1.16630919979326        0.08434469647475
N            2.29877817382611        0.07527477071623        0.03981603040599
C            2.58028210190900       -1.21425402444508        0.03006176031096
N            1.43813958087363       -1.93419271955128        0.00098261760884
C            0.39035688448383       -1.05887472636071       -0.00790371836672
C            0.93510056364412        0.21347819449412        0.01709077491437
C            0.09450143893243        1.40504303904423       -0.00410947031874
O            0.49712751527797        2.54126714362870       -0.00342325688240
N           -1.25076640035757        1.06271879480407       -0.03085478223738
C           -2.21907211982101        2.15522099834493       -0.05001256985998
C           -1.81739487048744       -0.20012725993278       -0.04692818574614
O           -2.99983886758376       -0.37846417018721       -0.07008878229737
N           -0.92618586207120       -1.30210215599479       -0.03682761578324
C           -1.46982264913417       -2.64643102187190       -0.06029820460571
H            3.71247264356769        1.21471455160235        1.06488849150277
H            4.00791497605742        1.03430808813993       -0.67357694370751
H            2.69910007168542        2.09770118228144       -0.09130154882931
H            3.56654120610678       -1.63682992603973        0.04233140067262
H           -1.67107961066214        3.09322851271934       -0.02552706933167
H           -2.82428953597071        2.09428624779827       -0.95318082946668
H           -2.87644029173232        2.07745725625962        0.81450067533302
H           -1.17061996399332       -3.19584890659852        0.83242232437030
H           -1.14560257411436       -3.17511610292205       -0.95688275822323
H           -2.55549792440841       -2.55659984320617       -0.07459039797972
H            1.38130855184625       -2.94313852034425       -0.01389874181052
25
 energy: -1.376210551083 xtb: 6.6.1 (8d0f1dd)
C            3.23391239126750        1.18022802150335        0.08508979859311
N            2.29704263382520        0.08950329662996        0.03703970702508
C            2.59036324932483       -1.24343751438135        0.03085491597733
N            1.43968274842735       -1.99959062443559        0.00210138281137
C            0.40304411134399       -1.08235491058948       -0.00904263312292
C            0.92267019953093        0.21251014180697        0.01412359585114
C            0.09658213330011        1.40094948627625       -0.00542269704182
O            0.49281360193682        2.56819554220242       -0.00337402375873
N           -1.26653512372106        1.06581545733225       -0.03142020231152
C           -2.23163852308911        2.16369193670623       -0.04899614796946
C           -1.82256109095367       -0.18813827450317       -0.04835406201794
O           -3.01961000696156       -0.36826666113133       -0.07167712046815
N           -0.93300466970500       -1.29520598730013       -0.03799074181539
C           -1.46978534927257       -2.63080817443414       -0.06113347449246
H            3.71791148790052        1.23070897532199        1.06468432778461
H            4.00413628161833        1.04918475632801       -0.67682479686803
H            2.70136816828972        2.11514744606785       -0.08876333370540
H            3.57270998741521       -1.64741954699136        0.04530799204319
H           -1.68100286271754        3.10205246200676       -0.02376595563484
H           -2.84073291198210        2.11209448591858       -0.95161821530779
H           -2.89248033447393        2.09349575553235        0.81498151439696
H           -1.15327325675015       -3.17250817204319        0.83141976817494
H           -1.12847194285383       -3.15187622737144       -0.95693387793246
H           -2.55480360058731       -2.54433283298471       -0.07541941537631
H            1.43387734682353       -3.07061023529503       -0.00783240868723
25
 energy: 6.723941587924 xtb: 6.6.1 (8d0f1dd)
C            3.22912722111238        1.18588420599433        0.08470377233529
N            2.29215726043233        0.09524104834373        0.03302323983737
C            2.59217056982592       -1.26563126612454        0.03311944013517
N            1.43892816834476       -2.05935684424029        0.00417099101881
C            0.41321129854934       -1.10795714730323       -0.00977243642254
C            0.90864203125607        0.20244579871903        0.01041178448682
C            0.09760994674202        1.38627863972245       -0.00700679026833
O            0.48272773468443        2.56666720679467       -0.00323570551600
N           -1.28553821061535        1.07495456844027       -0.03217059728456
C           -2.24487499248611        2.17905889600959       -0.04769593992325
C           -1.82492920635825       -0.17123389461314       -0.04982517330936
O           -3.02659223483952       -0.35855273885623       -0.07391791229631
N           -0.94013462472964       -1.27984536377336       -0.03906117499765
C           -1.46914619413077       -2.61081912888904       -0.06230395945283
H            3.72124992004929        1.24293839646319        1.06226098539665
H            3.99903324335030        1.06446085823483       -0.68144971890699
H            2.69996992421088        2.12493342492585       -0.08506527500125
H            3.57711260331102       -1.64637495897097        0.05007048438797
H           -1.69199258145000        3.11719326673394       -0.02128400311872
H           -2.85809722954270        2.13468378779348       -0.94917994892447
H           -2.90915526836998        2.11345810216174        0.81526156363169
H           -1.13606178928443       -3.14632412074462        0.82913135855447
H           -1.11135269496180       -3.12571847405129       -0.95644375627584
H           -2.55386787902506       -2.53599637960922       -0.07673325839003
H            1.51201765186109       -3.19135928098918        0.00002592645119
25
 energy: 12.089360070550 xtb: 6.6.1 (8d0f1dd)
C            3.22702025376496        1.18560102646561        0.08398562854340
N            2.29125331078620        0.09417837505116        0.03133007747617
C            2.58960774577883       -1.27336833739371        0.03530424420135
N            1.43656172492856       -2.07887684089267        0.00547478544090
C            0.41584914147325       -1.11730850333334       -0.00908918867813
C            0.90452158666488        0.19594630220990        0.00941645588975
C            0.09829319988325        1.38043932177145       -0.00732036907927
O            0.47869175290688        2.56049673588293       -0.00344451026603
N           -1.29401591927312        1.08341786563475       -0.03253628497250
C           -2.25088536469534        2.18840203638421       -0.04728421502141
C           -1.82665337853615       -0.16325852422042       -0.05047141984683
O           -3.02737065010227       -0.35823770856783       -0.07552698542917
N           -0.94232979111377       -1.26931922838104       -0.03905528594511
C           -1.46777269246859       -2.60208971320648       -0.06269094481963
H            3.72129727876059        1.24510206805605        1.06040144515908
H            3.99544886364117        1.07076507291531       -0.68475821280108
H            2.69679926897032        2.12579227932605       -0.08285260601380
H            3.57921178464706       -1.64388593977657        0.05277925177359
H           -1.69814294270536        3.12633210087582       -0.02014043857051
H           -2.86515650183323        2.14510666734668       -0.94836571707894
H           -2.91604564329994        2.12242967519079        0.81527764940080
H           -1.12839065209880       -3.13461061382031        0.82821289606514
H           -1.10346409669448       -3.11388470079438       -0.95606442433091
H           -2.55269900228433       -2.53662024418279       -0.07739158497978
H            1.55058539083566       -3.24352057036913        0.00184365003021
25
 energy: 14.252178888285 xtb: 6.6.1 (8d0f1dd)
C            3.22711911718331        1.18477883330633        0.08377985707195
N            2.29231779679958        0.09277757760526        0.03070658122883
C            2.58676810069821       -1.27459565714576        0.03654328622608
N            1.43364446032744       -2.07974389928676        0.00600452720731
C            0.41525077178938       -1.11784876602643       -0.00867580294128
C            0.90477742888813        0.19433801841501        0.00930344704469
C            0.09891989147651        1.38030408362292       -0.00725524640749
O            0.47738090330403        2.55840061623367       -0.00344472236753
N           -1.29601328142234        1.08735383489550       -0.03266105262662
C           -2.25242520284267        2.19106091482023       -0.04729593069318
C           -1.82805838586009       -0.16109837866158       -0.05069955658253
O           -3.02739652255935       -0.35983263970594       -0.07609790268616
N           -0.94287258721254       -1.26428598493268       -0.03891445140171
C           -1.46679071096069       -2.59981027029513       -0.06265461021771
H            3.72142063913473        1.24443954276834        1.05981699653427
H            3.99458995747106        1.07229778431276       -0.68586208487243
H            2.69571807929406        2.12499072432682       -0.08199155537435
H            3.57839327845373       -1.64221491348071        0.05311817889957
H           -1.70053274414378        3.12914415000556       -0.01995246755271
H           -2.86654204136654        2.14704670997719       -0.94845844375250
H           -2.91753069156576        2.12398745795933        0.81528453192972
H           -1.12583074346698       -3.13098061056357        0.82814404849111
H           -1.10093160949980       -3.11016480808103       -0.95590121681447
H           -2.55174600760541       -2.53851071374138       -0.07741722510225
H            1.56258477162197       -3.26280500415593        0.00161471090668
25
 energy: 15.736299647005 xtb: 6.6.1 (8d0f1dd)
C            3.22764687279171        1.18440170893007        0.08378502325084
N            2.29389137364774        0.09159581420478        0.03018284638119
C            2.58427806774718       -1.27417738701196        0.03778111014890
N            1.43091389727247       -2.07519519271440        0.00645314080746
C            0.41385194462954       -1.11605857171389       -0.00866816220713
C            0.90609543329832        0.19465093988864        0.00917684248816
C            0.09955966502192        1.38166783146707       -0.00728435690244
O            0.47670180902739        2.55844530172585       -0.00332491274403
N           -1.29587385799594        1.08879737460529       -0.03274931732868
C           -2.25244662680049        2.19116779691287       -0.04734014365750
C           -1.82929911858968       -0.16088437603182       -0.05079466897926
O           -3.02757535441038       -0.36072544441228       -0.07620697761286
N           -0.94323777761299       -1.26161177620043       -0.03891448159795
C           -1.46617318223839       -2.59942886029580       -0.06258967674427
H            3.72152595228362        1.24389758992998        1.05975453642370
H            3.99482505028215        1.07283983039492       -0.68594590607140
H            2.69542944227824        2.12432490991376       -0.08175819730371
H            3.57677709188298       -1.64110192059266        0.05233526116099
H           -1.70172276911358        3.12977266202512       -0.01997908235630
H           -2.86653118288119        2.14670268377792       -0.94855371036511
H           -2.91753617086622        2.12357180749766        0.81527973623936
H           -1.12457804965315       -3.12947283466216        0.82826664196101
H           -1.09986540881103       -3.10863570145205       -0.95593108825445
H           -2.55105380474717       -2.53968224808026       -0.07727634216299
H            1.56661137149313       -3.27583333593417        0.00133578157377
25
 energy: 16.567796670835 xtb: 6.6.1 (8d0f1dd)
C            3.22788000131128        1.18477239890739        0.08388560623930
N            2.29475898426548        0.09135669798118        0.02989008394722
C            2.58352950673114       -1.27342833089840        0.03893413426050
N            1.43011153803743       -2.07072195738724        0.00673793177809
C            0.41303782332125       -1.11435742217424       -0.00892388230397
C            0.90695650617163        0.19606009811010        0.00905629559005
C            0.09982805999826        1.38298809230468       -0.00737650847762
O            0.47659331299805        2.55986776487990       -0.00324543420862
N           -1.29497881035519        1.08826158206192       -0.03278198357961
C           -2.25188677284608        2.19027064699261       -0.04736664398309
C           -1.82972692477222       -0.16146656049324       -0.05074194737538
O           -3.02787442321734       -0.36016818796723       -0.07600345485355
N           -0.94345626184056       -1.26154930872486       -0.03900834287973
C           -1.46608898661886       -2.59995562364098       -0.06256999114452
H            3.72139769400535        1.24419713924321        1.06001687945639
H            3.99541584754007        1.07301278692745       -0.68546563905444
H            2.69545163180660        2.12437637331289       -0.08199619755478
H            3.57592614148108       -1.64089486475701        0.05103402008368
H           -1.70177903944940        3.12931007058801       -0.02007102435401
H           -2.86610762915615        2.14585213457806       -0.94856238863495
H           -2.91705310765854        2.12281387311820        0.81526833809990
H           -1.12450605685177       -3.12963835144869        0.82833646497376
H           -1.09992111993032       -3.10885599698114       -0.95598152672037
H           -2.55090851975828       -2.53964291337968       -0.07717219329428
H            1.56561527272329       -3.28343153898090        0.00114130013734
25
 energy: 17.178792687519 xtb: 6.6.1 (8d0f1dd)
C            3.22786814856669        1.18543832577739        0.08398602629254
N            2.29490151302036        0.09176248396583        0.02979519983737
C            2.58387008555716       -1.27281474727481        0.04024658738324
N            1.43071133474670       -2.06796673399564        0.00695785420080
C            0.41289670922335       -1.11340383919377       -0.00924224236917
C            0.90712070958882        0.19764203448791        0.00898388408307
C            0.09976287250954        1.38386245345561       -0.00745723106753
O            0.47671688002651        2.56138667353394       -0.00326016790745
N           -1.29434261014344        1.08739828553871       -0.03279198584476
C           -2.25153900990804        2.18963293012307       -0.04737881069140
C           -1.82957890987748       -0.16190608467592       -0.05066558596563
O           -3.02806046621467       -0.35910867702486       -0.07574855364393
N           -0.94354758956101       -1.26248183198173       -0.03912811039464
C           -1.46621822131830       -2.60044977383860       -0.06258384863058
H            3.72119136040508        1.24487831684376        1.06030565977657
H            3.99588197112100        1.07313690877082       -0.68496600611945
H            2.69554599626485        2.12485116684304       -0.08231506373176
H            3.57588140131003       -1.64098036104423        0.04951842541462
H           -1.70146294292026        3.12880431574933       -0.02013994380014
H           -2.86584485532950        2.14534081122737       -0.94855185288983
H           -2.91674111176222        2.12240084987437        0.81526470161414
H           -1.12491363372751       -3.13031186389153        0.82834272694093
H           -1.10034737770383       -3.10961907278009       -0.95599271822321
H           -2.55104145294955       -2.53911440093330       -0.07715603823451
H            1.56350386701190       -3.28934956738465        0.00101099011800
25
 energy: 17.490290954377 xtb: 6.6.1 (8d0f1dd)
C            3.22780615987154        1.18584860640290        0.08404029212389
N            2.29456298915701        0.09231272397032        0.02990225156299
C            2.58450106538480       -1.27247561308376        0.04137178332153
N            1.43174677068157       -2.06750142694840        0.00708189194350
C            0.41316362904868       -1.11334050420827       -0.00945221948601
C            0.90679798240089        0.19842898409068        0.00897640682845
C            0.09952564933006        1.38407435085361       -0.00749407843993
O            0.47686831006768        2.56199745341817       -0.00334580405244
N           -1.29432001444806        1.08709571276494       -0.03279668366107
C           -2.25162801344004        2.18964348021501       -0.04738438058321
C           -1.82922628902874       -0.16190522935284       -0.05063671547211
O           -3.02801066581284       -0.35856993704177       -0.07563075937950
N           -0.94349979775165       -1.26322511842908       -0.03921148842705
C           -1.46633856164003       -2.60052832282613       -0.06261055121021
H            3.72112591680911        1.24530342529394        1.06042365999349
H            3.99598979370250        1.07315124344795       -0.68478273473923
H            2.69570263541665        2.12528670848150       -0.08244856388096
H            3.57627452920744       -1.64095133164524        0.04835960936352
H           -1.70124491068191        3.12866629675539       -0.02015934877924
H           -2.86589253039194        2.14535891187801       -0.94855330046459
H           -2.91678034493276        2.12245026803023        0.81526436580875
H           -1.12528915833277       -3.13073519858124        0.82832466373525
H           -1.10067513917596       -3.11011663999194       -0.95598168366788
H           -2.55120364552851       -2.53871261565040       -0.07719829824155
H            1.56225830802346       -3.29252762567155        0.00097558195093
25
 energy: 17.628121139730 xtb: 6.6.1 (8d0f1dd)
C            3.22781168238777        1.18597970975045        0.08407785028510
N            2.29409672662418        0.09278977762678        0.03016464165565
C            2.58501995312895       -1.27218132323056        0.04268868688965
N            1.43272194608048       -2.06800403528466        0.00718192227038
C            0.41349424919866       -1.11365997666400       -0.00962654116110
C            0.90635837277508        0.19857386789571        0.00897230802876
C            0.09926451765139        1.38397425326332       -0.00752971673303
O            0.47700200620950        2.56196774931469       -0.00345993388988
N           -1.29461388328524        1.08724820719807       -0.03281427727923
C           -2.25192669082282        2.18997433470337       -0.04739022287154
C           -1.82891886079296       -0.16167164753166       -0.05065895087976
O           -3.02782799465402       -0.35860212644628       -0.07561529178592
N           -0.94337011357300       -1.26358342490422       -0.03929344475958
C           -1.46639942593324       -2.60037166400227       -0.06264353678902
H            3.72120777752257        1.24541053262389        1.06042300388784
H            3.99588376096578        1.07302273411171       -0.68482217096448
H            2.69593849467299        2.12557018736931       -0.08243282382104
H            3.57671184817173       -1.64072636229747        0.04717299822755
H           -1.70119730530858        3.12876542586068       -0.02015577577872
H           -2.86609244612480        2.14561731636408       -0.94856575838477
H           -2.91698768782559        2.12269258210690        0.81526423915311
H           -1.12551343654925       -3.13086304432205        0.82831353034367
H           -1.10085187723118       -3.11031828251504       -0.95597713279047
H           -2.55130491896446       -2.53854163513544       -0.07725074336168
H            1.56170797361224       -3.29403455368330        0.00101103665578
