25
 energy: 0.000000000000 xtb: 6.6.1 (8d0f1dd)
C            3.23720163006194        1.16630919979326        0.08434469647475
N            2.29877817382611        0.07527477071623        0.03981603040599
C            2.58028210190900       -1.21425402444508        0.03006176031096
N            1.43813958087363       -1.93419271955128        0.00098261760884
C            0.39035688448383       -1.05887472636071       -0.00790371836672
C            0.93510056364412        0.21347819449412        0.01709077491437
C            0.09450143893243        1.40504303904423       -0.00410947031874
O            0.49712751527797        2.54126714362870       -0.00342325688240
N           -1.25076640035757        1.06271879480407       -0.03085478223738
C           -2.21907211982101        2.15522099834493       -0.05001256985998
C           -1.81739487048744       -0.20012725993278       -0.04692818574614
O           -2.99983886758376       -0.37846417018721       -0.07008878229737
N           -0.92618586207120       -1.30210215599479       -0.03682761578324
C           -1.46982264913417       -2.64643102187190       -0.06029820460571
H            3.71247264356769        1.21471455160235        1.06488849150277
H            4.00791497605742        1.03430808813993       -0.67357694370751
H            2.69910007168542        2.09770118228144       -0.09130154882931
H            3.56654120610678       -1.63682992603973        0.04233140067262
H           -1.67107961066214        3.09322851271934       -0.02552706933167
H           -2.82428953597071        2.09428624779827       -0.95318082946668
H           -2.87644029173232        2.07745725625962        0.81450067533302
H           -1.17061996399332       -3.19584890659852        0.83242232437030
H           -1.14560257411436       -3.17511610292205       -0.95688275822323
H           -2.55549792440841       -2.55659984320617       -0.07459039797972
H            1.38130855184625       -2.94313852034425       -0.01389874181052
25
 energy: -0.142945902892 xtb: 6.6.1 (8d0f1dd)
C            3.23294884579143        1.18075371871679        0.08492749277376
N            2.29525048294299        0.08948709306103        0.03701468276303
C            2.58833819134735       -1.24407190923668        0.03087960338383
N            1.44089823894784       -2.00762784641676        0.00209577071298
C            0.40371015141653       -1.08518796928796       -0.00908999327655
C            0.92149594266675        0.21206543041262        0.01409559419673
C            0.09573230349725        1.40234444286188       -0.00535628417373
O            0.49160358204160        2.56980523314523       -0.00321412091369
N           -1.26724721046935        1.06801495195622       -0.03141486006747
C           -2.23291433099954        2.16582406001125       -0.04896801781167
C           -1.82231750764735       -0.18633001008324       -0.04838133060992
O           -3.01934749795700       -0.36626815866766       -0.07174440984334
N           -0.93290009805342       -1.29420288527198       -0.03802428360120
C           -1.46945290056205       -2.62924051788727       -0.06117427812152
H            3.71754355040256        1.23134007049142        1.06429881853336
H            4.00354451152161        1.04958609524313       -0.67669685781619
H            2.70266483022818        2.11718812949089       -0.08884114808009
H            3.57112616566101       -1.64483495251594        0.04542854780037
H           -1.68356639714490        3.10503071142080       -0.02370072134544
H           -2.84218152039411        2.11383576595175       -0.95148709636107
H           -2.89392498307118        2.09512011941279        0.81487415050731
H           -1.15166490998526       -3.17015328278225        0.83131081596908
H           -1.12689880818230       -3.14950757194211       -0.95687339537002
H           -2.55442799031187       -2.54369317159179       -0.07545162878115
H            1.44420202624943       -3.09024894432015       -0.00747315432012
25
 energy: 11.699252927214 xtb: 6.6.1 (8d0f1dd)
C            3.22766364842239        1.18709326373493        0.08448318815019
N            2.28857421284957        0.09606772596764        0.03306211526975
C            2.58771352112602       -1.26691591313074        0.03317238741887
N            1.44068191256857       -2.07751837452540        0.00397651050590
C            0.41461920569769       -1.11363679853012       -0.00977628023474
C            0.90573611265412        0.20143776308039        0.01042270279575
C            0.09568421756485        1.38898049785100       -0.00678491736462
O            0.48006338131607        2.56995878226357       -0.00278544047799
N           -1.28770018487022        1.08031480967722       -0.03212918563197
C           -2.24817369667844        2.18389488768649       -0.04772154286821
C           -1.82484121401073       -0.16637653719713       -0.04979984148870
O           -3.02667477966524       -0.35396767340395       -0.07401076355050
N           -0.94045931052415       -1.27617995506207       -0.03904513749328
C           -1.46845092142807       -2.60656593314171       -0.06231505611568
H            3.72054326534873        1.24427380224270        1.06183980130311
H            3.99811338342052        1.06487253482130       -0.68123435990649
H            2.70305168697582        2.12917629183209       -0.08546685059144
H            3.57428196187358       -1.64001778817865        0.05014727623420
H           -1.69797663364646        3.12374872533082       -0.02127698070146
H           -2.86150988649490        2.13813558749958       -0.94913311862027
H           -2.91263900951258        2.11678058817541        0.81505568662568
H           -1.13232075775300       -3.14075621461739        0.82876588571286
H           -1.10772101905336       -3.12013803322036       -0.95603247172007
H           -2.55309935101765       -2.53493283731584       -0.07672243099432
H            1.53705492277307       -3.23870059966775        0.00034271989069
25
 energy: 21.160154943328 xtb: 6.6.1 (8d0f1dd)
C            3.22558910121476        1.18765764283554        0.08380224753436
N            2.28712522295441        0.09607474974989        0.03137680135900
C            2.58383931380778       -1.27605346998161        0.03547788490400
N            1.43783675297912       -2.10427565667371        0.00510524988711
C            0.41781128461085       -1.12415607062591       -0.00902121226166
C            0.90047750707754        0.19479121002537        0.00945718542101
C            0.09573884305240        1.38371876353834       -0.00698165973239
O            0.47477197957634        2.56475476065437       -0.00279799906641
N           -1.29794504903062        1.09157313722703       -0.03249472560085
C           -2.25638886555847        2.19553381564729       -0.04734236018934
C           -1.82712106393905       -0.15569294260639       -0.05046620615861
O           -3.02812490901203       -0.35216736164022       -0.07570663080704
N           -0.94320983600854       -1.26235160600121       -0.03901147677730
C           -1.46652364068474       -2.59501022331298       -0.06267757577388
H            3.72064714025380        1.24778686729397        1.06004179688522
H            3.99445341633383        1.07191217828832       -0.68463376962767
H            2.70099891136366        2.13172033551602       -0.08345757658719
H            3.57622954754111       -1.63545459874749        0.05286786327345
H           -1.70739607527776        3.13577827513847       -0.02014627634214
H           -2.87091016631627        2.15030270100155       -0.94829972910839
H           -2.92191539360744        2.12745200203667        0.81492562614499
H           -1.12217449306052       -3.12546009600822        0.82766109514172
H           -1.09744321515546       -3.10473484613505       -0.95537276304941
H           -2.55138013562725       -2.53511614422141       -0.07734378741956
H            1.58722849044877       -3.31955482082661        0.00207189409828
25
 energy: 27.499408346041 xtb: 6.6.1 (8d0f1dd)
C            3.22620560767043        1.18791215940012        0.08370125730167
N            2.28834124068305        0.09621953812274        0.03060783615820
C            2.57948018475016       -1.27776692809940        0.03683579048089
N            1.43315608715899       -2.10776490982915        0.00543348883120
C            0.41690001851038       -1.12378231904930       -0.00860518451158
C            0.90015755583753        0.19398227446956        0.00928887295053
C            0.09588134843999        1.38458342900704       -0.00688723023337
O            0.47187553431611        2.56350359870196       -0.00269871040679
N           -1.30151279569046        1.09805511022630       -0.03266166705188
C           -2.25951894642496        2.19993967766267       -0.04736145304988
C           -1.82943350968112       -0.15147535870174       -0.05073724562532
O           -3.02880162412593       -0.35323092397087       -0.07631330298375
N           -0.94446176281725       -1.25376293984094       -0.03888342459133
C           -1.46507180370537       -2.59043905419013       -0.06263020107976
H            3.72108733040555        1.24850520212697        1.05957936701224
H            3.99395436356852        1.07453062994008       -0.68568298895633
H            2.70096527333338        2.13250500192735       -0.08269549767821
H            3.57477677364159       -1.63197636189145        0.05305617410764
H           -1.71178747681632        3.14045994675809       -0.01996310707889
H           -2.87384158693010        2.15335077728342       -0.94843360205715
H           -2.92491577075948        2.13008348463539        0.81497565705997
H           -1.11794568032453       -3.11897466250348        0.82739830465233
H           -1.09337948735407       -3.09817819807259       -0.95498896772877
H           -2.54989868720078       -2.53677103502892       -0.07731511221645
H            1.61000248145088       -3.37047953691173        0.00201484284206
25
 energy: 35.625238616305 xtb: 6.6.1 (8d0f1dd)
C            3.22805192558833        1.18969204200911        0.08393522554170
N            2.29127227295674        0.09788171235745        0.02963590540924
C            2.57277864063136       -1.27568398512808        0.03878646254063
N            1.42510486207547       -2.09820543975437        0.00549308064375
C            0.41306414746322       -1.11695759758052       -0.00846912033141
C            0.90168999215899        0.19736403519929        0.00912553736268
C            0.09588358850955        1.38945453397026       -0.00696236981190
O            0.46816189964746        2.56560740963183       -0.00236316631529
N           -1.30331401755441        1.10397500212837       -0.03290975856256
C           -2.26137294884274        2.20247821643577       -0.04744935824998
C           -1.83309160699624       -0.14858540381062       -0.05091231837532
O           -3.03020094086530       -0.35372667077016       -0.07648243890104
N           -0.94638023065176       -1.24426944840198       -0.03882826174480
C           -1.46362670521650       -2.58687385819625       -0.06249765907608
H            3.72173974530487        1.24997351147821        1.05980365045335
H            3.99503346963082        1.07708122901047       -0.68558057677825
H            2.70221386298354        2.13442678983319       -0.08259880516563
H            3.57041080764448       -1.62687232250855        0.05148547071028
H           -1.71579241235686        3.14380130131789       -0.02004347534224
H           -2.87557415179867        2.15445985517730       -0.94862052053607
H           -2.92655254852619        2.13105910354663        0.81505783814830
H           -1.11431558625512       -3.11295259626933        0.82734886526177
H           -1.09011121249129       -3.09212050755583       -0.95472009327822
H           -2.54823199693146       -2.53796246243105       -0.07707066527627
H            1.63537381182792       -3.45401584751698        0.00187044782066
25
 energy: 33.001567163893 xtb: 6.6.1 (8d0f1dd)
C            3.23161861867752        1.19547289560970        0.08445140471220
N            2.29278468342433        0.10773303314251        0.02746206761532
C            2.54487055675205       -1.26503291887828        0.04267287652534
N            1.40083872941103       -2.07382155643250        0.00484766570965
C            0.40347590272994       -1.09638087238872       -0.00809311566431
C            0.89995709241201        0.21229015663632        0.00860098371990
C            0.09576814028485        1.40448153886580       -0.00708162843391
O            0.45467418605707        2.57379632341611       -0.00174953947462
N           -1.31036886853524        1.12363162694312       -0.03340762277336
C           -2.26709519493420        2.21273949806463       -0.04749627659266
C           -1.84053524955478       -0.13760839478875       -0.05119560956532
O           -3.03235541637446       -0.35193647746403       -0.07699959018144
N           -0.95274465502400       -1.21416153701693       -0.03862953130977
C           -1.46051249494842       -2.57381271068441       -0.06236811314935
H            3.72279961819434        1.25301056533755        1.05990016397131
H            3.99550372052764        1.08205704051713       -0.68618108911158
H            2.70705291596620        2.14257303796114       -0.08208124867048
H            3.55086805706280       -1.60737714428612        0.04890928614306
H           -1.72447233133341        3.15451725938741       -0.01988872345578
H           -2.88044233580869        2.16033728642538       -0.94918700661378
H           -2.93130340014431        2.13640688714362        0.81565345826742
H           -1.10476965620953       -3.09632671383748        0.82512165141776
H           -1.08119595434567       -3.07541985103234       -0.95229133047287
H           -2.54475394828695       -2.53953985012402       -0.07690311212555
H            1.74255195193606       -3.73860052034481        0.00296787566014
25
 energy: 24.957760030749 xtb: 6.6.1 (8d0f1dd)
C            3.23349445364196        1.19936764642714        0.08466430310993
N            2.28749988546463        0.11553513280230        0.02822913468616
C            2.49932255824066       -1.24434881003947        0.04211865283081
N            1.37463598568512       -2.02242031224657        0.00495559739758
C            0.39345317303463       -1.06089717573096       -0.00773718815113
C            0.89946453688537        0.23775634974023        0.00896614738435
C            0.09252442229476        1.42928940142970       -0.00694172865973
O            0.43997536448004        2.58482559123296       -0.00147036240079
N           -1.31011048649395        1.14387008762623       -0.03371665086199
C           -2.26999795076027        2.22172709809227       -0.04752454459075
C           -1.84364170047357       -0.13171305027337       -0.05140075988740
O           -3.03090233543653       -0.34660265118762       -0.07723170236506
N           -0.95485629097823       -1.18642031340912       -0.03856009212091
C           -1.45647349497489       -2.56302340165244       -0.06226387383133
H            3.72217956608560        1.25336586224073        1.05905544576723
H            3.99455077470697        1.08326415157187       -0.68615359582638
H            2.71315477624202        2.15025857681961       -0.08196851173081
H            3.51582730089253       -1.58910674896670        0.04702010757538
H           -1.73234391287827        3.16505947959756       -0.01977859460718
H           -2.88296313319073        2.16437627345366       -0.94921164485240
H           -2.93369474776943        2.14003781520338        0.81569045439480
H           -1.09533801787735       -3.08317701305507        0.82182096375589
H           -1.07229952851395       -3.06229319238209       -0.94881207341808
H           -2.54086697030150       -2.53955533116067       -0.07679858973775
H            1.86962043993058       -4.07014686396153        0.00408300228686
25
 energy: 20.655244239792 xtb: 6.6.1 (8d0f1dd)
C            3.23234240989599        1.20381618850289        0.08399867610075
N            2.27370203502896        0.12429495963909        0.03396991361655
C            2.46316362906148       -1.21134539559842        0.03431991492631
N            1.36236460318070       -1.94140523130172        0.00539530490693
C            0.38731349659166       -1.01062577110961       -0.00802882630514
C            0.89974518063091        0.27932435831486        0.01059562666495
C            0.08186647007230        1.46212127008937       -0.00666150412321
O            0.43350455440942        2.61474270961248       -0.00124836935416
N           -1.29754009789550        1.14587168015468       -0.03334105606860
C           -2.26728506167183        2.22082992516273       -0.04755003167031
C           -1.83976442745367       -0.13828303074856       -0.05099620961168
O           -3.03152712899301       -0.32843619562581       -0.07629244648656
N           -0.95266590367853       -1.18695621588156       -0.03890344326986
C           -1.45365979850726       -2.56370889235760       -0.06217234465826
H            3.72020238917026        1.25078849377781        1.05867338653129
H            3.99414040299985        1.07651821924404       -0.68467723447243
H            2.71910476188436        2.15611803515478       -0.08391108437888
H            3.47748464712490       -1.58570356801361        0.04840065957104
H           -1.73368002807722        3.16742956302893       -0.02006210281584
H           -2.88024343940025        2.16173571383582       -0.94880233280717
H           -2.93085027599385        2.13783948919584        0.81517497687744
H           -1.09462508376100       -3.08513212872366        0.82147331803241
H           -1.07147537986459       -3.06443154987251       -0.94826105172447
H           -2.53857100447533       -2.53277481950191       -0.07664606690504
H            1.95916771765747       -4.36359920480634        0.00258622357122
25
 energy: 20.055753403491 xtb: 6.6.1 (8d0f1dd)
C            3.23568055165200        1.21874540121519        0.08312075233655
N            2.26806827554229        0.14579199471720        0.03758940051343
C            2.45744888664816       -1.18303180574341        0.03276163299630
N            1.35338964009356       -1.88992547927901        0.00401564746418
C            0.37921129773987       -0.96773484251116       -0.00831539454960
C            0.89925823140655        0.31844765668829        0.01205483837836
C            0.06819828160899        1.48844286271901       -0.00565788498522
O            0.42773199170167        2.64630861889396       -0.00124383953143
N           -1.29139304702369        1.14656663363066       -0.03248013149069
C           -2.26898366441812        2.22105691361744       -0.04768836680985
C           -1.83947419044088       -0.13889260829719       -0.05019720689904
O           -3.03692721909057       -0.30621686302764       -0.07522276440063
N           -0.95836733246361       -1.18972894330519       -0.03913549395175
C           -1.45176729525508       -2.56092510382889       -0.06211642656798
H            3.72204972985669        1.25626556730047        1.05980103900879
H            3.99785542922001        1.07632063026876       -0.68348649295445
H            2.72709117774373        2.16972411070712       -0.08680075730216
H            3.46186707092897       -1.58276933453933        0.05006902390839
H           -1.73486390628716        3.16814825609324       -0.02052655228778
H           -2.87948423399528        2.15812687389274       -0.94957959987746
H           -2.93028401728432        2.13495745581353        0.81557216971582
H           -1.09552071202015       -3.08649541290727        0.82162862154861
H           -1.07224112842005       -3.06588181315105       -0.94835602316505
H           -2.53750154398668       -2.52634369810786       -0.07652162749498
H            2.01117239447929       -4.66192846868758       -0.00225066745509
25
 energy: 19.972721515911 xtb: 6.6.1 (8d0f1dd)
C            3.23838736818408        1.23190665609728        0.08363010104788
N            2.26558578124404        0.16669719976109        0.03873970994785
C            2.46601117210838       -1.16396299597228        0.03173132311104
N            1.35100023946043       -1.86807885338776        0.00382223195442
C            0.37544288165447       -0.94491051783841       -0.00834129929950
C            0.89869958503846        0.33978264197109        0.01303070807916
C            0.05925130436790        1.50156792758986       -0.00535414411471
O            0.42551931482137        2.66179269806685       -0.00200729968796
N           -1.29025640330590        1.14774592139004       -0.03214466092756
C           -2.27166661037455        2.22253256592922       -0.04784299318159
C           -1.83836990051525       -0.13674590422411       -0.05007064705985
O           -3.03804338702567       -0.29639951658309       -0.07467340500357
N           -0.96002904972643       -1.19204873027193       -0.03921151477948
C           -1.44802114804045       -2.55719874818141       -0.06192267290639
H            3.72460436485800        1.26240607541085        1.06111537937427
H            3.99962712327115        1.07884113034967       -0.68216990069807
H            2.73329140698013        2.18249286383158       -0.08707305745979
H            3.45922715242279       -1.57870803411770        0.04826464691882
H           -1.73536351482913        3.16840451994723       -0.02094653729342
H           -2.88017490667456        2.15726336931085       -0.95000890883255
H           -2.93112900106268        2.13464178383960        0.81566921041975
H           -1.09596802518024       -3.08779402082679        0.82183743382130
H           -1.07235655107183       -3.06740575703146       -0.94811823211184
H           -2.53481032050499       -2.52178220431949       -0.07649534258603
H            2.01175579183670       -4.85201146856879       -0.00442623258490
25
 energy: 19.929685406265 xtb: 6.6.1 (8d0f1dd)
C            3.23932247467297        1.23580219212058        0.08354207499470
N            2.26398120586905        0.17566760717308        0.03864336602638
C            2.47351701792154       -1.15514200684045        0.03218500561402
N            1.35715948783007       -1.86172578757702        0.00336767554152
C            0.37697492029200       -0.94129984149107       -0.00835023691041
C            0.89852842107512        0.34361650959830        0.01347682181869
C            0.05682178792702        1.50380098026985       -0.00529621506876
O            0.42555374372550        2.66417222875220       -0.00206402618141
N           -1.29060585524733        1.14746187637972       -0.03195217630303
C           -2.27259087350075        2.22262228411582       -0.04776959591236
C           -1.83676166301902       -0.13596994665765       -0.04989433884228
O           -3.03638597235744       -0.29749808532853       -0.07454575785419
N           -0.95740721272741       -1.19428573104166       -0.03918062169818
C           -1.44605875786526       -2.55602588578252       -0.06200943673192
H            3.72547008170421        1.26418662402106        1.06109995524296
H            4.00005191429042        1.07904177513849       -0.68197202377914
H            2.73630317100951        2.18696247650232       -0.08769099211201
H            3.46100452376686       -1.57613739357426        0.04938043868452
H           -1.73507252584615        3.16775446347034       -0.02091420186693
H           -2.88044969907639        2.15710332220353       -0.95000795704086
H           -2.93142027581231        2.13455410615010        0.81583763090451
H           -1.09622661789946       -3.08903567169412        0.82178492433971
H           -1.07261643467413       -3.06853226569072       -0.94839897764836
H           -2.53360703350096       -2.52024665432787       -0.07653894137560
H            1.98672883937852       -4.89781857371751       -0.00569849769429
25
 energy: 19.869173175576 xtb: 6.6.1 (8d0f1dd)
C            3.24035128977870        1.24000313343634        0.08404075808547
N            2.26257858856379        0.18583718583812        0.03821748169209
C            2.48519977000996       -1.14416110913479        0.03201745440417
N            1.37220070465611       -1.85729644928037        0.00343984670194
C            0.38150387212751       -0.94380496982304       -0.00821059715678
C            0.89845860423876        0.34333610489899        0.01390901356794
C            0.05600840497024        1.50336676230477       -0.00540306578377
O            0.42642332892712        2.66374225394910       -0.00218301112113
N           -1.29110509736900        1.14629830206440       -0.03196836655469
C           -2.27296789276102        2.22204221077930       -0.04791316828033
C           -1.83405018219417       -0.13509673525665       -0.04993503687371
O           -3.03324036910509       -0.30151750901455       -0.07455732364423
N           -0.95257287550169       -1.19775478064102       -0.03904353343697
C           -1.44449557978760       -2.55570136407822       -0.06183497952878
H            3.72655607295118        1.26629030048471        1.06158513612470
H            4.00037307434098        1.08072622115636       -0.68153523210472
H            2.73954515392170        2.19222516656561       -0.08709869637917
H            3.46648087490866       -1.57225752162500        0.04830165456674
H           -1.73461072872520        3.16672951200338       -0.02107121711133
H           -2.88039062307546        2.15670057281959       -0.95022598448691
H           -2.93145637070031        2.13422765551966        0.81573465014415
H           -1.09698573506305       -3.09086882938507        0.82216685038917
H           -1.07329206735840       -3.07051015955054       -0.94840134120421
H           -2.53276056735710       -2.51922915467082       -0.07640871802026
H            1.93446301753958       -4.92429819718821       -0.00658867784213
25
 energy: 19.809001184067 xtb: 6.6.1 (8d0f1dd)
C            3.24097896115526        1.24201221442341        0.08384184019957
N            2.26299531778205        0.18963434377336        0.03789422475851
C            2.49142338628329       -1.13893633951718        0.03300220473348
N            1.38492456737654       -1.85751809128287        0.00349907685549
C            0.38556911801689       -0.95009592784846       -0.00820521894013
C            0.89839147578760        0.33996360018152        0.01390633857029
C            0.05736105897313        1.50104662428498       -0.00543344097459
O            0.42684726627688        2.66158189088204       -0.00206763172192
N           -1.29134381250983        1.14528763156634       -0.03190264914866
C           -2.27267243990481        2.22122304757810       -0.04775233440013
C           -1.83233339037280       -0.13499707975772       -0.04982084045695
O           -3.03118796298577       -0.30491251318572       -0.07449040003317
N           -0.94952493568460       -1.19923829176167       -0.03907175082110
C           -1.44419542105435       -2.55656827743171       -0.06207292301946
H            3.72692814273220        1.26786053522753        1.06148824933908
H            4.00076314364854        1.08162015879118       -0.68177442977637
H            2.74079611571070        2.19456578840286       -0.08781109521106
H            3.47129342504561       -1.56957829763899        0.04951652651652
H           -1.73443497626887        3.16607490094038       -0.02090260170964
H           -2.88037630200794        2.15644646231290       -0.95002686319098
H           -2.93133853827453        2.13391453242333        0.81593110736423
H           -1.09693239047737       -3.09184391266815        0.82196332895225
H           -1.07332385014954       -3.07123036167495       -0.94886716628850
H           -2.53236690962521       -2.51934368617968       -0.07656663715709
H            1.89397361846313       -4.91794034966883       -0.00724301829236
25
 energy: 19.766724950797 xtb: 6.6.1 (8d0f1dd)
C            3.24104923736234        1.24251245772121        0.08428182336160
N            2.26421546904434        0.18888503667299        0.03782522214101
C            2.49183881677715       -1.13862278769497        0.03241857549032
N            1.38966740718873       -1.85925140402385        0.00377333307947
C            0.38717486143224       -0.95408072225708       -0.00820469348905
C            0.89827993112230        0.33759949572554        0.01366368288925
C            0.05887248108746        1.49941037242967       -0.00543771896649
O            0.42685689452622        2.66015248591739       -0.00206947732763
N           -1.29124279867924        1.14500226068809       -0.03206033770427
C           -2.27216705895219        2.22083233704787       -0.04796858492375
C           -1.83190606096233       -0.13545945574512       -0.04993890794759
O           -3.03074077752292       -0.30581123151983       -0.07455982089236
N           -0.94905525811271       -1.19886454688889       -0.03901060110025
C           -1.44469828032012       -2.55740602328334       -0.06177657812586
H            3.72702800357762        1.26784514208215        1.06194546125284
H            4.00070794907129        1.08274796920955       -0.68161980193619
H            2.74006272088028        2.19467917125485       -0.08680125440899
H            3.47332726073912       -1.56809893448456        0.04799321478192
H           -1.73433585985172        3.16598794174517       -0.02110599371701
H           -2.88011612490823        2.15632400874719       -0.95027752047253
H           -2.93120911507511        2.13384364198655        0.81565015146324
H           -1.09685265677149       -3.09157451907302        0.82237853299203
H           -1.07323704867785       -3.07127454391398       -0.94847070737476
H           -2.53249326285084       -2.51972819985044       -0.07629961014370
H            1.88118793781190       -4.90662135032115       -0.00729449277397
25
 energy: 19.756133232701 xtb: 6.6.1 (8d0f1dd)
C            3.24111234455536        1.24254816993987        0.08386272563666
N            2.26493609692572        0.18793041039594        0.03790874540424
C            2.49093383053913       -1.13917888124003        0.03313506925832
N            1.39007964780967       -1.86001396271696        0.00391892279377
C            0.38734841023217       -0.95494548258256       -0.00821682042933
C            0.89814198668058        0.33711702820423        0.01353877733920
C            0.05939278746341        1.49907771872716       -0.00543879728665
O            0.42667182807087        2.65994101051622       -0.00199630997353
N           -1.29122391337344        1.14514540274765       -0.03199855330264
C           -2.27208094976105        2.22079532049815       -0.04773950061046
C           -1.83195794944620       -0.13583030640002       -0.04985680978033
O           -3.03087938011352       -0.30558875155494       -0.07451095244869
N           -0.94933826596900       -1.19824566473103       -0.03909152312878
C           -1.44489608417561       -2.55769148472895       -0.06208530549714
H            3.72693767750187        1.26820961089807        1.06156171107051
H            4.00090826040465        1.08248066522535       -0.68190443818825
H            2.73972417924543        2.19429487849404       -0.08772623043387
H            3.47360355726965       -1.56743627257266        0.04934781400896
H           -1.73445771323468        3.16608076884775       -0.02087500142399
H           -2.88023060086673        2.15636976523177       -0.94998487237722
H           -2.93115398528943        2.13379063494685        0.81592522829215
H           -1.09663394489121       -3.09144865036733        0.82196066885281
H           -1.07300698765100       -3.07083290687770       -0.94884628341199
H           -2.53252695325866       -2.51996026760607       -0.07660166086540
H            1.88081078926823       -4.90358015112283       -0.00725270735108
25
 energy: 19.754560454855 xtb: 6.6.1 (8d0f1dd)
C            3.24106706230051        1.24265336197033        0.08434692299533
N            2.26532617858906        0.18747775437495        0.03792382152821
C            2.49038085892301       -1.13942852086645        0.03230317423864
N            1.38986000402500       -1.86023614723679        0.00382983257081
C            0.38731038393081       -0.95492993762903       -0.00826342742914
C            0.89801511621258        0.33716102021093        0.01342309613711
C            0.05955598320411        1.49910014369716       -0.00539358512716
O            0.42660070467317        2.66000634964168       -0.00202552212996
N           -1.29118794214458        1.14530428526160       -0.03210236256190
C           -2.27201247073890        2.22082908812878       -0.04803047035112
C           -1.83196331164056       -0.13618181406799       -0.04992028678453
O           -3.03098374784656       -0.30524710936445       -0.07453072300254
N           -0.94954041172552       -1.19788638502512       -0.03898961175593
C           -1.44499050032359       -2.55780013540982       -0.06167896803359
H            3.72701375074893        1.26774822197681        1.06201951994292
H            4.00078843062418        1.08304064656614       -0.68157176037018
H            2.73933787120730        2.19422113504900       -0.08660485942315
H            3.47367371707496       -1.56694450235781        0.04785961783578
H           -1.73440900588845        3.16612205313672       -0.02117618688235
H           -2.88006768522309        2.15632919016363       -0.95035207789397
H           -2.93121349152322        2.13388509135190        0.81555605119286
H           -1.09657129310546       -3.09111779707951        0.82247619621328
H           -1.07302217435078       -3.07089719634431       -0.94832197256144
H           -2.53257485461332       -2.51996868397735       -0.07617134413996
H            1.88182149554664       -4.90421150999900       -0.00757117806074
