25
 energy: -42.546295448472 xtb: 6.6.1 (8d0f1dd)
C            3.22973252970089        1.18305807592186        0.08394609157622
N            2.28608708690572        0.09223593519885        0.03175397504601
C            2.53723907008302       -1.23533397670503        0.03593136037562
N            1.43204814018191       -1.96343440256917        0.00693189013015
C            0.40614822822431       -1.07356001691757       -0.00854605514404
C            0.91302691460766        0.22279884542821        0.00874985608606
C            0.08903208691848        1.40438183317773       -0.00730383380995
O            0.47186690328225        2.56077514442418       -0.00238835783516
N           -1.27132492061566        1.08027543782103       -0.03201052230644
C           -2.23703171539889        2.17097549601271       -0.04813253536497
C           -1.81886544444255       -0.19104742316058       -0.04993118013046
O           -3.01830380790510       -0.35584610141424       -0.07412780130266
N           -0.94056165858753       -1.27049930617357       -0.03913021744179
C           -1.47305736024275       -2.61588227436152       -0.06243178698896
H            3.71558910028817        1.22882157719400        1.06190599473166
H            3.99859141190790        1.05472330949427       -0.67911509121448
H            2.69989992708088        2.12248140710591       -0.08334026730414
H            3.54048321052023       -1.61879882404451        0.04807702074372
H           -1.68852506727890        3.11026141133101       -0.02150654668026
H           -2.84373815071745        2.11391401036842       -0.95148853403753
H           -2.89540098796127        2.09351461232388        0.81634015395608
H           -1.14558996760702       -3.15814650604870        0.82539737061350
H           -1.12063779176705       -3.13761002937021       -0.95304359109359
H           -2.55768215759332       -2.53754449538042       -0.07709455729605
H            1.68746689695730       -3.65551896923033        0.00658204076081
