25
 energy: 0.000000000000 xtb: 6.6.1 (8d0f1dd)
C            3.23720132972391        1.16630909158653        0.08434468864950
N            2.29877796055224        0.07527476373246        0.03981602671198
C            2.58028186251803       -1.21425391179017        0.03006175752192
N            1.43813944744728       -1.93419254010258        0.00098261751768
C            0.39035684826767       -1.05887462812143       -0.00790371763344
C            0.93510047688824        0.21347817468824        0.01709077332874
C            0.09450143016486        1.40504290868848       -0.00410946993748
O            0.49712746915594        2.54126690785742       -0.00342325656480
N           -1.25076628431515        1.06271869620815       -0.03085477937476
C           -2.21907191394203        2.15522079838987       -0.05001256521996
C           -1.81739470187490       -0.20012724136556       -0.04692818139228
O           -2.99983858926755       -0.37846413507442       -0.07008877579474
N           -0.92618577614240       -1.30210203518959       -0.03682761236648
C           -1.46982251276835       -2.64643077634382       -0.06029819901142
H            3.71247229913541        1.21471443890471        1.06488839270555
H            4.00791460421487        1.03430799217987       -0.67357688121503
H            2.69909982127087        2.09770098766290       -0.09130154035862
H            3.56654087521359       -1.63682977417947        0.04233139674524
H           -1.67107945562430        3.09322822573871       -0.02552706696334
H           -2.82428927394145        2.09428605349656       -0.95318074103337
H           -2.87644002486466        2.07745706351925        0.81450059976605
H           -1.17061985538665       -3.19584861009707        0.83242224714061
H           -1.14560246782873       -3.17511580834413       -0.95688266944647
H           -2.55549768731684       -2.55659960601237       -0.07459039105944
H            1.38130842369251       -2.94313824728853       -0.01389874052104
25
 energy: -5.400957626191 xtb: 6.6.1 (8d0f1dd)
C            3.24779451820936        1.17493677076805        0.08689448994713
N            2.30906890994803        0.09584998682786        0.03766420268097
C            2.59909878398602       -1.23238623913806        0.03076174758964
N            1.42648895966123       -1.93811705544251        0.00117266093618
C            0.39647744882299       -1.05350441022519       -0.00804695250314
C            0.93060262568783        0.22497233625158        0.01478328645474
C            0.10026096157743        1.39774083236657       -0.00654909356914
O            0.49594025938309        2.56389165560915       -0.00741848174792
N           -1.26191253609007        1.05151443506538       -0.03039486247725
C           -2.22386411285976        2.14655811988898       -0.05060866819171
C           -1.82392835545419       -0.20043609511635       -0.04311448025690
O           -3.02030271580283       -0.38398648440070       -0.06296972900158
N           -0.93374921653449       -1.29965221840554       -0.03571226769475
C           -1.47013915563124       -2.64224653891166       -0.06187956872951
H            3.72627991602224        1.21934069290906        1.06905787450368
H            4.01628697644572        1.03789310607813       -0.67557330969236
H            2.70118736970865        2.09980226561633       -0.08918755212781
H            3.57626154059382       -1.66050727456374        0.04450038601474
H           -1.66398476464220        3.07881116929112       -0.02776639604015
H           -2.82981759177398        2.09138350422626       -0.95460028525579
H           -2.88140903188624        2.07720253801295        0.81537547824051
H           -1.16599028571749       -3.19556296648602        0.82858461480079
H           -1.14098883427411       -3.17028513939318       -0.95888638648317
H           -2.55555344331826       -2.55284229699212       -0.07650936497391
H            1.35810607891092       -2.94134190509234       -0.01254343022876
25
 energy: 4.395576999554 xtb: 6.6.1 (8d0f1dd)
C            3.38257991184305        1.15502975705545        0.10803182270672
N            2.36677014746422        0.13872557363300        0.00969327666922
C            2.60186225617968       -1.30244586711135        0.05098234478886
N            1.32573006240653       -1.88471327046693        0.02976674593126
C            0.39598883012795       -0.96687548885974        0.00106016773804
C            0.93498316601547        0.31910971555153       -0.01526655393050
C            0.08913140182595        1.39661654127760       -0.07190617695650
O            0.32678646635989        2.62644417549265       -0.14474186307219
N           -1.35689362822808        1.01297621518719       -0.01322411743028
C           -2.30159367650273        2.09576519901536       -0.06659890330264
C           -1.86787073739046       -0.21340631198129        0.06987024146481
O           -3.06838981340016       -0.46525976381348        0.15976489379348
N           -0.95445740745066       -1.24566609192105        0.00369220528166
C           -1.41248358465478       -2.60069556136839       -0.11788550246848
H            3.93696590123889        1.17091936575231        1.06576472873851
H            4.14546060766337        1.06229134045409       -0.67925571429283
H            2.87881762886285        2.11894983217674       -0.00502040279251
H            3.52158944520033       -1.84238727823446        0.10275441751945
H           -1.65890051580857        2.97604863179042       -0.11164426793289
H           -2.93652519782607        2.01291166179028       -0.95272463067153
H           -2.94723330913805        2.10040915149169        0.81647343443088
H           -1.07500355258721       -3.21737296302126        0.72341722077863
H           -1.05164531012154       -3.03983167836722       -1.05891228131336
H           -2.50124544494590       -2.54160606344742       -0.12762591331237
H            1.13779065783841       -2.87690803333171        0.05056873982911
25
 energy: 24.444008047257 xtb: 6.6.1 (8d0f1dd)
C            3.46772828446682        1.13518634466261        0.12027107039885
N            2.40063510622906        0.15802723631676       -0.00589662827266
C            2.59714168623821       -1.34146150052632        0.06355415751490
N            1.27044036146211       -1.85189187178114        0.05123861726763
C            0.39417577206106       -0.91292149391118        0.00990613011802
C            0.94075811035689        0.37504845880789       -0.03113681924303
C            0.07724626133259        1.40589982434232       -0.11629899015702
O            0.22193859709420        2.66119462351955       -0.23579421738913
N           -1.41681603904862        0.99738636861750       -0.00233776774441
C           -2.35596602966342        2.06958620724278       -0.07891150047991
C           -1.89504702090991       -0.22082717334131        0.15190159857215
O           -3.09184111988113       -0.51586629819995        0.31177990568745
N           -0.96240895181641       -1.21230090571159        0.03183112013888
C           -1.37202908141560       -2.57492873918164       -0.15747325456556
H            4.06890142072847        1.12538855658633        1.06077375486751
H            4.22483941912049        1.06955668179714       -0.68311613814611
H            2.99863807902940        2.12740686791039        0.05196021117798
H            3.48051723152795       -1.94969824088841        0.13966054632850
H           -1.67414290809496        2.92252761972076       -0.17210920552487
H           -3.01064530443770        1.95981423749683       -0.95098269633023
H           -2.99051491836454        2.11906803119479        0.81561126911432
H           -1.01552651578541       -3.23344954409901        0.64991736517155
H           -0.99238785207066       -2.95068235433949       -1.12766619241327
H           -2.46276205188778       -2.53744816952903       -0.16420607588289
H            1.00934176870123       -2.83558597796260        0.09455765198591
25
 energy: 38.542803231987 xtb: 6.6.1 (8d0f1dd)
C            3.52528646763937        1.11574404209287        0.12724603776422
N            2.42540191909280        0.16322170874859       -0.01582736704958
C            2.59228180285788       -1.37090846890337        0.07142499315856
N            1.24458185738885       -1.83093475562695        0.07104536038011
C            0.39521593561790       -0.87677433203594        0.01907048130817
C            0.94920416566300        0.41068991869438       -0.03751850256699
C            0.07046733487132        1.42142097461180       -0.15026333249217
O            0.14850217878095        2.67109679192297       -0.29363384352136
N           -1.46612458970760        0.99497503045918        0.00127664581015
C           -2.39987323187838        2.06004377158280       -0.09071450291697
C           -1.91145751029731       -0.22674006936615        0.22041670804558
O           -3.09342926255708       -0.55570770815136        0.42580607023355
N           -0.96076405673151       -1.19059080091857        0.05410235326103
C           -1.33968413153143       -2.55491595713197       -0.18876510460996
H            4.15621288775516        1.08452107378509        1.05289004140042
H            4.27620691919887        1.07507199217451       -0.68868344625379
H            3.08125190541938        2.12600581752779        0.09465719264551
H            3.44480597983397       -2.02423192935618        0.16238962398251
H           -1.70314004312412        2.89547471468102       -0.21825138294767
H           -3.06800317029287        1.92649667988276       -0.95036146923563
H           -3.02311487750430        2.13758683936476        0.80987797869959
H           -0.97908568556107       -3.24203627734560        0.59352010433020
H           -0.95068708637797       -2.88415423012609       -1.17443790416750
H           -2.43146656025665       -2.53349667066149       -0.19552170036969
H            0.92962515667312       -2.80282936716086        0.12728887730627
25
 energy: 84.341687035046 xtb: 6.6.1 (8d0f1dd)
C            3.90671299029761        0.63235136143817        0.05860263230165
N            2.49641796980411        0.20055272189537       -0.08446382208368
C            2.48985859707674       -1.14409308481368        0.22175802212126
N            1.24930599940901       -1.55772492563320        0.35018781832280
C            0.37185944744375       -0.58516873563410        0.14178485531353
C            0.92550909970802        0.65687390687652       -0.09123068850195
C           -0.18828833172347        1.62452728249104       -0.29810553053451
O           -0.17138945326433        2.72368517541662       -0.81036474616386
N           -1.59820607710678        1.10353877572799        0.11826363528490
C           -2.83205933822251        1.90356723667774       -0.14576228321568
C           -1.83142358345983       -0.14438675762172        0.71617685103484
O           -2.71524660031210       -0.41073361760332        1.56637748423360
N           -0.91231452749770       -1.11410015345583        0.28468015576245
C           -1.14381500289628       -2.30384823633617       -0.55908619100576
H            4.41138487711733        0.10923133514891        0.89510789260797
H            4.55661414639352        0.32753053264567       -0.79415983472727
H            3.87575642623316        1.71436367361442        0.17429738820219
H            3.27580212844847       -1.81751224308427        0.48654152994045
H           -2.61667571903514        2.85480475600491       -0.65627152611855
H           -3.55419642703760        1.35693180099781       -0.78171251481653
H           -3.38082857522670        2.14621251639232        0.77466728340578
H           -0.68296706971046       -3.24140008633515       -0.18067655534314
H           -0.69266563868648       -2.10512263698380       -1.55735952288838
H           -2.19567338287193       -2.52679440426038       -0.68353827132622
H            0.86874235009165       -2.41425740482192        0.68131985038872
25
 energy: 106.510913350072 xtb: 6.6.1 (8d0f1dd)
C            4.31519879774766        0.41219564022993        0.01522745296470
N            3.00655410559215       -0.07869573655399       -0.15244367600535
C            2.59085505394001       -1.17202943214110        0.33112648639669
N            1.28716586613967       -1.39010563646196        0.31641675510967
C            0.38765037402314       -0.37972536460311        0.06370809130779
C            0.61835437023934        0.89651887868115       -0.15108628191508
C           -0.58047183503498        1.68817814353885       -0.34577916740191
O           -0.50459409420225        2.84827847168023       -0.69158552688848
N           -1.82549664789651        1.08914234866795        0.09480216396126
C           -3.05844631355231        1.86160981967890       -0.13612405471207
C           -1.82110816366552       -0.19231777603276        0.81064431122056
O           -2.37712855487590       -0.41389799332109        1.78981354773108
N           -0.87157662424093       -1.08945524869605        0.29585727667209
C           -1.12394732895579       -2.25074418813168       -0.63877716278821
H            4.67834896031157        0.24275609058687        1.00115859642049
H            5.05688121410150        0.04210400725363       -0.71324124788995
H            3.85688072955768        1.45064553519239       -0.11891734122961
H            3.16598666007743       -1.99536569374045        0.64249176634484
H           -2.80667663124946        2.86758090381538       -0.53173109747989
H           -3.73947164899624        1.35397148117414       -0.86480812989602
H           -3.60860950032973        2.01034238426193        0.77803179642505
H           -0.64242987955503       -3.21349555140598       -0.34753306601630
H           -0.73992200620696       -1.99081660901273       -1.64733927287623
H           -2.16716794378025       -2.49098992856618       -0.73960294873914
H            0.81538534578384       -2.11665575735035        0.76672464147859
25
 energy: 123.395463930598 xtb: 6.6.1 (8d0f1dd)
C            4.41610721043728        0.38410784655643        0.02321736054732
N            3.15327139143695       -0.17601418567492       -0.18767376871566
C            2.62492959708524       -1.20375074662464        0.34710389490067
N            1.29994253712215       -1.32269476203891        0.26010568529179
C            0.40747487822534       -0.31951998296895        0.02460555364478
C            0.50999048890179        0.97696508585180       -0.15351137090838
C           -0.65959767973738        1.74263344078702       -0.32869622056032
O           -0.56981819463285        2.89786828326256       -0.68953163604023
N           -1.88946278053854        1.09910689067422        0.08247712707472
C           -3.11022734056975        1.88566794572416       -0.14397685268223
C           -1.82720352643898       -0.22360442582860        0.80204285099442
O           -2.33803926475226       -0.45531877089657        1.88584656516319
N           -0.85045164285947       -1.09010498898466        0.27565367506977
C           -1.11307790194250       -2.29055708608351       -0.63725241002595
H            4.78223119579201        0.26210490111889        1.03881886248578
H            5.19984889101151        0.03864383942844       -0.68402398868193
H            3.81440333335672        1.38277821300149       -0.13971251700761
H            3.10381786147889       -2.09427635529491        0.67512542501120
H           -2.83578917168733        2.90295737873841       -0.50434115978655
H           -3.79905258865484        1.41096422722398       -0.89561997811018
H           -3.67110354032822        2.02453899677434        0.76650789607498
H           -0.63959208986441       -3.25848154215174       -0.33538116945677
H           -0.73024253785220       -2.04177934607275       -1.64629206070517
H           -2.15737879679550       -2.53492251197849       -0.73734829686831
H            0.79123397677849       -2.00828355579916        0.72889044548526
25
 energy: 150.763035545826 xtb: 6.6.1 (8d0f1dd)
C            4.51892064489921        0.34901190161095        0.03223187078080
N            3.29721405909348       -0.27648408443116       -0.20724024943733
C            2.66402648841436       -1.23922606336114        0.34409455225724
N            1.32016145013010       -1.24080555077470        0.20632346571005
C            0.43764624940006       -0.24667227411316       -0.00933726656362
C            0.42317756246683        1.05767563012073       -0.15025482219143
C           -0.74838865975472        1.78612124077390       -0.33742343796251
O           -0.64980144645020        2.95495943007113       -0.67856897535315
N           -1.95504208236085        1.10402854336929        0.07219697005662
C           -3.17101677909313        1.90964859625419       -0.14532498149299
C           -1.80728525722474       -0.25109892538197        0.81336610052741
O           -2.34075873152790       -0.50074393758053        1.91511980001521
N           -0.82438074372279       -1.09185773169207        0.26267726073799
C           -1.09837768434870       -2.32702481834599       -0.62476925015046
H            4.90733396318466        0.25049653660558        1.06435255618218
H            5.34762105505343        0.03789223658800       -0.66010996525525
H            3.77250612462748        1.31519607997279       -0.15137217205577
H            3.03883095608245       -2.19715710683860        0.70268659978811
H           -2.88044307903565        2.93594536031739       -0.47664058430299
H           -3.86126496787667        1.47605165883045       -0.92169460563066
H           -3.74802010898903        2.04125702159530        0.76061386299870
H           -0.63129331127344       -3.29410003246787       -0.31107512190189
H           -0.71686237302287       -2.09737532251248       -1.63186717111934
H           -2.14685050072116       -2.58069743969221       -0.72670004305020
H            0.76456147702184       -1.88601216017397        0.68574951960784
25
 energy: 189.024582111734 xtb: 6.6.1 (8d0f1dd)
C            4.56403092278539        0.34250876002485        0.04965765197510
N            3.40881189266218       -0.41453477051544       -0.20954423764606
C            2.71177775860701       -1.28115374743504        0.28378102939387
N            1.37394626705160       -1.11339545841416        0.16854604743181
C            0.50260624971319       -0.15631515098707       -0.03144235615491
C            0.34440962162472        1.10656040432121       -0.16027541707014
C           -0.82424448077470        1.82243094185537       -0.31554580715968
O           -0.69727182423652        2.98190627748692       -0.68331580859376
N           -1.99437270912427        1.09477939976443        0.04829606834039
C           -3.21210141909915        1.93893535318436       -0.15133782072183
C           -1.74355446616411       -0.30382317645299        0.83151405829807
O           -2.40334553662531       -0.54886416568295        1.94204519646198
N           -0.79396207621088       -1.12431952081131        0.24798163702063
C           -1.08617278730943       -2.35994989650510       -0.61125380430958
H            5.01687140005207        0.17818419866833        1.09884830564565
H            5.39709107750712        0.03556512455071       -0.64056327648618
H            3.72058246581904        1.28097383913093       -0.15329527523731
H            2.97416321621509       -2.26456415374653        0.71820660124077
H           -2.93996251143095        2.95540803695002       -0.47855295328059
H           -3.87551608028445        1.54349655556861       -0.93218524716019
H           -3.80922492620651        2.05743439844851        0.76134901534610
H           -0.61975896930753       -3.30436371631161       -0.28514120763967
H           -0.69811465321183       -2.13608952247898       -1.58868229708023
H           -2.15678483605993       -2.61193215984916       -0.72303472098610
H            0.75231070898017       -1.72984906202015        0.64097853056635
25
 energy: 221.515459653248 xtb: 6.6.1 (8d0f1dd)
C            4.65452046448242        0.29090028313703        0.05733913673714
N            3.55634492936668       -0.51129884939569       -0.21683809596799
C            2.72528565516281       -1.29739643000642        0.29631390151165
N            1.39472291662321       -1.01364318830048        0.14147676915590
C            0.53653021744837       -0.04874415339459       -0.07803822274663
C            0.30582739377730        1.18502976338735       -0.17926114586987
C           -0.90655198113797        1.84464942588480       -0.30909710572317
O           -0.75871821975943        3.00863686102845       -0.66084469998447
N           -2.05738724157817        1.09805875659183        0.04707757905089
C           -3.27535582558978        1.96296323546664       -0.15697714262787
C           -1.74094873399880       -0.35526595744415        0.84166174718613
O           -2.32644534370081       -0.57925735747028        1.98075340966943
N           -0.79321334334884       -1.13040675752618        0.22646628087738
C           -1.07188103034384       -2.39906291569680       -0.59814747310926
H            5.10057429070210        0.16357172431665        1.12145748570544
H            5.53034119870814        0.01982552848943       -0.61335018563272
H            3.66220905040761        1.21839878874461       -0.16196038887804
H            2.88414885457969       -2.32867227315497        0.72600287299385
H           -2.98104438975773        2.99549484924066       -0.44800271555363
H           -3.93294782077694        1.60884663987281       -0.96369674633701
H           -3.87938719374746        2.06646920122798        0.75032377686460
H           -0.60908445912386       -3.34096006412371       -0.25931704683668
H           -0.68380562627325       -2.19638200733460       -1.58072539034287
H           -2.14124616120794       -2.66457489173650       -0.72010885004151
H            0.71972670405855       -1.60815142306007        0.58452616209380
25
 energy: 252.294117823818 xtb: 6.6.1 (8d0f1dd)
C            4.68715373665623        0.22228255064758        0.07297248699637
N            3.71893340091509       -0.58835060207543       -0.21433645369138
C            2.67433191953960       -1.29349785748532        0.33469330218071
N            1.43065928234222       -0.93660646155495        0.17221397038046
C            0.58833890966175        0.11236768362281       -0.11874729256415
C            0.37063745800374        1.24452324185473       -0.21183474779444
C           -0.95948860327652        1.83372670499204       -0.27691807171827
O           -0.75997043959146        2.97801679535018       -0.63702861726146
N           -2.08875614103814        1.10360733755740        0.06515189388288
C           -3.31758233587831        1.97645076374978       -0.16776181430496
C           -1.79683199805917       -0.46287203618357        0.88487891962045
O           -2.16821214820363       -0.58102753032456        1.93370628216703
N           -0.87684610019165       -1.17349826891638        0.23867231971110
C           -1.07802025251847       -2.42012327199009       -0.57288363172586
H            5.10355511899200        0.15002175238713        1.10997356076464
H            5.55381048518885        0.01510708039149       -0.60156456615123
H            3.59241577582890        1.21209760091232       -0.15894300668580
H            2.77754791992613       -2.32662067443019        0.68335015081520
H           -3.00532035569172        3.02470332938709       -0.44945238276510
H           -3.94960279717683        1.63251292572949       -0.98334603461147
H           -3.89152953227696        2.06684014522731        0.73439266931408
H           -0.60620949725909       -3.36467768099523       -0.24466711013369
H           -0.66769297431383       -2.21411574851773       -1.57563470208459
H           -2.13159434796904       -2.68607119528255       -0.72768017384181
H            0.71248782136237       -1.53576779530959        0.53782696169580
25
 energy: 244.925512787803 xtb: 6.6.1 (8d0f1dd)
C            4.74627757857231        0.00558308692972        0.14862263734356
N            3.85927947635362       -1.02644450620734       -0.03720973250680
C            2.73053731658075       -1.27430939269791        0.24494544517740
N            1.57631317278986       -0.61089935307974        0.15654837918485
C            1.11264713129384        0.52363312814408       -0.17470544055610
C            0.31549656815760        1.57776727042202       -0.23713554755648
C           -1.08030202157585        1.82302097035518       -0.26466428832521
O           -0.52348746001459        3.00347126360418       -0.61208570496921
N           -2.16689608013350        1.26746458071263       -0.07652721235503
C           -3.36334272102743        2.11665903389954       -0.24436540637198
C           -1.63102653966698       -0.90993370054297        1.11428625570741
O           -2.04728682007186       -0.63738943660023        2.20886649958806
N           -0.97820464154645       -1.53618948009764        0.31672065711985
C           -1.11243141824446       -2.57638502667710       -0.62097558923171
H            5.15449779839803        0.08142097781641        1.17530207805627
H            5.60412572719764       -0.08190919002886       -0.55177554352570
H            3.03675373027899        1.26614028513764       -0.20759118040268
H            2.54984651593622       -2.28334356462304        0.56469365213332
H           -3.10947723717131        3.14280678553331       -0.48594617516835
H           -4.00207361830765        1.73304457041248       -1.04641615521536
H           -3.94616198781168        2.10901299935760        0.68834547676197
H           -0.61311519597360       -3.49209122103740       -0.25221265181084
H           -0.64268910737074       -2.28950391627376       -1.54791381789769
H           -2.15711485456131       -2.82234508626188       -0.78467732669987
H            0.60004899289069       -1.12025228945305        0.35290460371476
25
 energy: 188.632856740118 xtb: 6.6.1 (8d0f1dd)
C            4.80669425926258       -0.08695438977281        0.17098680127421
N            3.93170910803126       -1.08541880566004        0.00694709922440
C            2.68191686005855       -1.22107821284401        0.23847064977594
N            1.55180460560937       -0.55890916028188        0.15786362030988
C            1.24469463188733        0.73741357629049       -0.19175634803763
C            0.32122972168977        1.62234136098599       -0.26533815758974
C           -1.07260647441737        1.77984819808116       -0.24925615037141
O           -0.40597281675951        2.95167084705371       -0.59573757448997
N           -2.22374241126083        1.32863306444371       -0.13085878529970
C           -3.37216999298526        2.14668282580518       -0.25588581771680
C           -1.59620128862687       -1.03101914019762        1.23294658424642
O           -2.03334261800988       -0.66674477642514        2.21610514007387
N           -1.01026782300659       -1.61380792547412        0.35730900434312
C           -1.12178533301128       -2.62059437364305       -0.63440453688900
H            5.16071179209337        0.06426036517126        1.18380436689034
H            5.61028236489683       -0.11077080936841       -0.54840927170645
H            2.84445057336278        1.30526907373442       -0.23551925597643
H            2.47937788061191       -2.26190799799176        0.52211377088019
H           -3.13046900061006        3.16731826324689       -0.49515458873203
H           -4.01008953802733        1.73937277655335       -1.05405391495364
H           -3.94421115671836        2.11199756295816        0.67624030292526
H           -0.61143052193662       -3.52441331211205       -0.26487647653980
H           -0.63593202114087       -2.29077879183189       -1.54277666303865
H           -2.16177897394756       -2.84496084346345       -0.80063461994007
H            0.60934247792680       -1.04842058651425        0.32890873353217
25
 energy: 136.820372556787 xtb: 6.6.1 (8d0f1dd)
C            4.83670259985405       -0.18049949475716        0.18591618246302
N            3.88880347632687       -1.07432011831321        0.07063793580406
C            2.67459544751892       -1.16454354151338        0.21425511316022
N            1.53632283440033       -0.50201805091939        0.16287666565402
C            1.40985696703497        0.89423029985674       -0.17706587988353
C            0.31707248026006        1.64832846953881       -0.29485231149861
C           -1.06178568103921        1.71546260515350       -0.24168049440354
O           -0.25824549055020        2.86705857730433       -0.57281336708839
N           -2.25425948775443        1.36900127252509       -0.17658605961268
C           -3.37336695692241        2.17998442144441       -0.27020059745759
C           -1.57358739462587       -1.15877036706529        1.30198917146239
O           -2.05084342486282       -0.66368599535044        2.23671612874545
N           -1.00928327474446       -1.68182887227950        0.40809268194939
C           -1.12258418690765       -2.64845525786321       -0.64134369903889
H            5.16221888777694        0.04523957738628        1.19913794338463
H            5.62014199734506       -0.16845452553262       -0.54601681342884
H            2.59007723024394        1.32761900823071       -0.27275586727050
H            2.46621668982406       -2.21915282590617        0.48320233198224
H           -3.13998900196381        3.20553890254995       -0.50329472257333
H           -4.01706133145074        1.74978050498277       -1.05738643977156
H           -3.93405122885425        2.12319186616001        0.66793829963874
H           -0.61715768443921       -3.55421318234965       -0.29653388645318
H           -0.63834416844908       -2.27853436353374       -1.53773297449131
H           -2.16770041965121       -2.85561028759980       -0.81986557366684
H            0.62846542660230       -0.98631983340517        0.30440014458915
25
 energy: 135.317804181010 xtb: 6.6.1 (8d0f1dd)
C            4.90486348841982       -0.23025364440210        0.20596318542420
N            3.87000909853021       -0.99438076979767        0.04563186287714
C            2.64985717880640       -1.14876535291039        0.20888988132888
N            1.49264291441379       -0.45371537960524        0.17130120930432
C            1.49896262454758        0.97921646687241       -0.18033461417694
C            0.34134745917343        1.56651105016752       -0.30604481556437
C           -1.05519544943320        1.69227308597226       -0.26317980391806
O           -0.26150153738253        2.84148885223411       -0.54023996609842
N           -2.24005839976808        1.35900639098991       -0.16243046062368
C           -3.37739492707389        2.19680006647143       -0.27609505258208
C           -1.57775281989563       -1.21590064958230        1.33134850574811
O           -2.02272307965744       -0.66804163882499        2.23353812459366
N           -0.96567746091772       -1.68481099585560        0.40444403013213
C           -1.11910176663140       -2.66966860331625       -0.62643839282028
H            5.19911844336609        0.03093165398545        1.22761337369145
H            5.67449220217667       -0.22562936567864       -0.53514699443438
H            2.34831523909791        1.33233535630207       -0.28755278453349
H            2.47400548710976       -2.22001898821688        0.48136687563944
H           -3.14846448761370        3.24577949352308       -0.51359347049621
H           -4.01884210515758        1.77808228208765       -1.05680930139643
H           -3.93219835934115        2.14397012463430        0.65795892486264
H           -0.63077764354355       -3.58314444799064       -0.32247525946557
H           -0.65104290575479       -2.28211101331342       -1.52777868036295
H           -2.17866041743748       -2.86796478289685       -0.82855860375600
H            0.63799152893865       -0.93296040210529        0.28565613882141
25
 energy: 123.843241067699 xtb: 6.6.1 (8d0f1dd)
C            4.95645686496140       -0.19793640197715        0.21191967724777
N            3.84787289062230       -0.88345076606798        0.03519385599875
C            2.61932407799822       -1.11374200160533        0.21693968856086
N            1.46101076280323       -0.41037781914905        0.18099263790961
C            1.44193045626360        0.94175349110255       -0.15129624774511
C            0.28968826730646        1.49283640822284       -0.28592184776392
C           -1.05360130026319        1.67644640673063       -0.26662371026587
O           -0.22046764817145        2.81549277496328       -0.52629972175891
N           -2.22664147423006        1.31843236865407       -0.14627599622175
C           -3.37907857175577        2.19992965158864       -0.28372662445753
C           -1.60864555991590       -1.24231397647450        1.32284935903347
O           -2.03584407110038       -0.66972761972559        2.24579139208000
N           -0.97062274495094       -1.71233491499144        0.42653983133015
C           -1.12446220209411       -2.68555148358277       -0.61893237966889
H            5.21478282336924        0.01602640643182        1.23808365815003
H            5.69073425743458       -0.28761874362673       -0.52660600816135
H            2.49710966838436        1.39605635295984       -0.33147633266052
H            2.47045923016579       -2.19457589513187        0.45869011061587
H           -3.15283836263976        3.26217119133874       -0.52204133058546
H           -4.02220381911529        1.78978297130818       -1.05745631764846
H           -3.92565688705474        2.15193068109463        0.65552605174073
H           -0.63804434638193       -3.61137073782115       -0.35270223681867
H           -0.65549961330756       -2.27281404324673       -1.51718663880695
H           -2.18563749875719       -2.88377341166777       -0.84715797911242
H            0.62208910540120       -0.90624210058328        0.26821102120303
25
 energy: 118.839048279245 xtb: 6.6.1 (8d0f1dd)
C            4.92410090705034       -0.24307546617648        0.24092040936793
N            3.82423794210783       -0.87651584070072       -0.02149598363832
C            2.62580618749948       -1.13928334409899        0.23561819549548
N            1.51813613082793       -0.42976457211267        0.17735527144659
C            1.48858600885547        0.91716503099165       -0.15404356027083
C            0.29536653878013        1.54010728130885       -0.27652251906892
C           -1.06146345590095        1.72364719000487       -0.24616327456390
O           -0.20621977779216        2.81222197044885       -0.57273081737746
N           -2.24243351537977        1.34183780341487       -0.16332871011827
C           -3.38361312818727        2.19222393229187       -0.27670175753289
C           -1.61393460105314       -1.24239268236322        1.31693298069284
O           -2.02309819759647       -0.68011607170506        2.21297384915366
N           -0.97003235550823       -1.71974625332374        0.45168718115932
C           -1.12537388644907       -2.64973000057066       -0.61841779095741
H            5.21725667773562        0.01147547553495        1.23600323117805
H            5.68452747204386       -0.29375993840310       -0.54940922936945
H            2.42270445598775        1.40434999064208       -0.29171732221408
H            2.47443492206768       -2.19712509077321        0.44985579800417
H           -3.13607200392848        3.21603266244929       -0.52744674763322
H           -4.01476173247786        1.76288469846193       -1.05523868569576
H           -3.91443231345207        2.14541902216044        0.67429132801123
H           -0.63055700039046       -3.58696184986706       -0.33551367299928
H           -0.64963308652696       -2.25828032514556       -1.52095335512631
H           -2.16928246190260       -2.84593986018743       -0.82060677778930
H            0.57796457856158       -0.91564497353787        0.26168587204068
25
 energy: 116.742304556086 xtb: 6.6.1 (8d0f1dd)
C            4.96311317569466       -0.26453094363587        0.23555198943079
N            3.83136866644777       -0.83993934175497       -0.01966392019532
C            2.62302725547368       -1.14402082746534        0.23875945422445
N            1.50186644632732       -0.41298131028255        0.16003403478856
C            1.47800647441251        0.93266662571004       -0.16879408470155
C            0.27914615990158        1.50995510246012       -0.28710404566367
C           -1.06803582701151        1.71232126597804       -0.26337588326619
O           -0.21990068576400        2.82049908336791       -0.51524969124250
N           -2.24124213815750        1.34097224430392       -0.14375169853710
C           -3.38994263924269        2.20273327764069       -0.28163698155647
C           -1.61439722622877       -1.23699716592043        1.34049497890356
O           -2.01497405191932       -0.65839322201126        2.24380249260033
N           -0.96653927313108       -1.71522195875271        0.42290196195403
C           -1.12408149442299       -2.67992187503074       -0.62858125204322
H            5.22292261165173        0.03340954523106        1.25243997260397
H            5.71287616196585       -0.32305911082234       -0.52366222011334
H            2.42670105676356        1.39267869628172       -0.33698835616383
H            2.46751987497769       -2.21330151462793        0.46002365315204
H           -3.15653184765329        3.25637648956793       -0.50519333810831
H           -4.02994708011068        1.79595104789619       -1.06738558947761
H           -3.94726757842697        2.14645814652359        0.65294892349146
H           -0.62910665981214       -3.61057883096276       -0.34784545790037
H           -0.64724170906181       -2.28928216941503       -1.52759001199913
H           -2.17386407225052       -2.89285108625655       -0.85100287234449
H            0.62873870454901       -0.87391337927890        0.28790185435838
25
 energy: 112.121332182372 xtb: 6.6.1 (8d0f1dd)
C            4.96520821630356       -0.34057982527006        0.25051022672512
N            3.79182557231011       -0.71694461462622       -0.09849238771185
C            2.62818604854542       -1.15480297261500        0.29224752108697
N            1.50721728471472       -0.43918209237611        0.10373696971557
C            1.47151363554645        0.90997472181099       -0.17744353283263
C            0.29623218728734        1.52856537508127       -0.28062840368518
C           -1.06502073806736        1.72188775176393       -0.27420560218113
O           -0.20801164268826        2.82280057790016       -0.53034478570833
N           -2.23831315393623        1.34701363203185       -0.16553981680715
C           -3.38675653768922        2.20154440614300       -0.28280558265408
C           -1.61558825896657       -1.24459833262058        1.32767757586757
O           -2.02369678044790       -0.68912421341477        2.25282571231289
N           -0.98272328008664       -1.72275109989881        0.43293373786542
C           -1.12367145310601       -2.67073453343626       -0.62234223268147
H            5.24824666604323       -0.06791532315795        1.25828083499043
H            5.68663175748995       -0.23996518399847       -0.54409821441994
H            2.41664522441444        1.41013308296273       -0.31957561720409
H            2.49825100392889       -2.19755899172335        0.54629339536818
H           -3.15139467452550        3.24315390426283       -0.51646085753284
H           -4.02757364504945        1.78196085688684       -1.06044909911642
H           -3.92949107604462        2.14744211790960        0.66240179292289
H           -0.62923747908734       -3.60213317725794       -0.33799796797888
H           -0.64826059015774       -2.27391199999244       -1.51926183584373
H           -2.17281315331397       -2.87374244816932       -0.83374943503532
H            0.60480917155490       -0.89150282945190        0.26352151673249
