  25
        -42.13534318
 C          3.3718885580        0.6330273252       -0.0092470681
 N          2.2687875008       -0.2888012024       -0.0049406895
 C          2.3449993626       -1.6240689069       -0.0077015231
 N          1.0993155363       -2.1563142345       -0.0028936088
 C          0.1985354962       -1.1218381525        0.0020291668
 C          0.9374493208        0.0587702063        0.0015073301
 C          0.3176345254        1.3561660166        0.0077294123
 O          0.8918635157        2.4277113264        0.0153056379
 N         -1.0825779424        1.2548414899        0.0029266208
 C         -1.8385291107        2.4993004685       -0.0042170481
 C         -1.8483484943        0.1172983496       -0.0100377102
 O         -3.0501769393        0.1300865005       -0.0378930719
 N         -1.1584897479       -1.1560231091        0.0071090473
 C         -1.9034709777       -2.2755412383        0.0269188391
 H          3.9938342452        0.4852014038        0.8744925948
 H          3.9861434445        0.4860402341       -0.8984740536
 H          2.9777900080        1.6492122601       -0.0067108675
 H          3.2526944705       -2.1926572331       -0.0122209295
 H         -1.1283172725        3.3237896272        0.0033276589
 H         -2.4659282350        2.5482403396       -0.8945203027
 H         -2.4833888840        2.5473473079        0.8735113739
 H         -1.4405039946       -3.2390653647        0.0155682683
 H         -2.9698711238       -2.1587243590        0.0344493160
 H         -4.8470500549       -4.0486452949        0.2589376305
 H          0.8932467048       -3.1439092988       -0.0036044050
