  72
        -99.38091745
 N         -2.1322213023        2.5819303696        2.0995347079
 C         -1.8747128459        2.7198579864        0.7667115813
 C         -2.3073297607        1.9098675765       -0.2261521672
 C         -3.1117924374        0.7131886654        0.0261376636
 C         -4.1813867850        0.3721243002       -0.8126385965
 C         -4.9522629463       -0.7511150569       -0.5795818249
 O         -6.0112717470       -1.1406411424       -1.3214639405
 C         -6.4091622857       -0.3566553400       -2.4204570894
 C         -4.6472741093       -1.5976785098        0.5203428744
 O         -5.4518540351       -2.6705702379        0.6636633532
 C         -5.2384592391       -3.5503558199        1.7426027706
 C         -3.5745385867       -1.2718940680        1.3354219341
 C         -2.8191063533       -0.1348366385        1.0935006269
 C         -1.9492842863        2.2319586856       -1.6505871324
 C         -1.0923331961        1.1146503851       -2.2988584458
 C          0.2453714927        1.0513115218       -1.6820866386
 N          0.7307948481        0.0449831333       -0.9709574784
 C          2.0971907186        0.0850267490       -0.5073101452
 C          3.0539391164       -0.6104561872       -1.4966218368
 C          4.4792720553       -0.4282332580       -1.0567789022
 C          5.1531632147        0.7488378846       -1.3388459543
 C          6.4595730840        0.9384013292       -0.9161152859
 C          7.1196633935       -0.0493383805       -0.2001030275
 O          8.3847374516        0.0249530521        0.2581013059
 C          9.1384735870        1.1871589569        0.0018870020
 C          6.4378331758       -1.2616736752        0.0916716063
 O          7.1564976945       -2.1714317351        0.7820538369
 C          6.5819465834       -3.4216101930        1.0772270237
 C          5.1295706625       -1.4259978860       -0.3353321011
 C          0.0105258479       -1.1943948690       -0.8050445156
 C         -5.5986185496        2.1035746514        2.2205443978
 C         -5.1744359618        1.3786548890        3.2423221991
 C         -5.4330400033        3.5798637633        2.1039985585
 H         -4.4307570786        1.0225224735       -1.6346593012
 H         -6.6960713476        0.6544077597       -2.1121529459
 H         -7.2759959102       -0.8625647306       -2.8413865974
 H         -5.6222214506       -0.2983132584       -3.1799412169
 H         -5.3594808970       -3.0434290546        2.7044543834
 H         -5.9995610099       -4.3224829334        1.6445420792
 H         -4.2466937992       -4.0114114502        1.6949183151
 H         -3.3155970786       -1.9022985256        2.1704646450
 H         -1.9742520600        0.0754298237        1.7309031107
 H         -2.8509497008        2.3487975736       -2.2532367086
 H         -1.4010113233        3.1732951971       -1.6908256534
 H         -1.6247248774        0.1683217625       -2.2283834241
 H         -0.9742594132        1.3687581032       -3.3571006351
 H         -1.2497216220        3.5677793870        0.5179981387
 H          0.8695562030        1.9274338995       -1.7640003009
 H          2.1601027351       -0.4025462672        0.4681606630
 H          2.4063496125        1.1252794645       -0.3886813758
 H          2.9118372060       -0.1654662251       -2.4837215494
 H          2.8103550223       -1.6715949017       -1.5583344825
 H          4.6658904513        1.5278261486       -1.9055837868
 H          6.9594362690        1.8622201986       -1.1567659073
 H          8.6770109984        2.0715966959        0.4520457309
 H          9.2709334509        1.3502166109       -1.0719613817
 H         10.1090213713        1.0131778272        0.4625261582
 H          7.3540300562       -3.9807946621        1.6020177363
 H          5.7064965269       -3.3187406993        1.7265896813
 H          6.3015742549       -3.9597754481        0.1664021734
 H          4.6048908553       -2.3438601129       -0.1212465896
 H         -0.1022810471       -1.7177295113       -1.7576341670
 H         -0.9809818815       -1.0060697120       -0.3879452304
 H          0.5567344470       -1.8376210520       -0.1200050844
 H         -6.1043460465        1.6245522851        1.3928677069
 H         -2.9142749035        1.9937968715        2.3545631939
 H         -5.3307709197        0.3157335623        3.2835434047
 H         -4.6883793996        1.8221728537        4.0969021842
 H         -4.9483928600        3.9942002324        2.9863423995
 H         -4.8409910434        3.8269791179        1.2211417164
 H         -6.4050723595        4.0554135110        1.9845160709
 H         -2.0055583391        3.3982424147        2.6735399592
