72
 energy: -99.357939410946 gnorm: 0.007663132101 xtb: 6.6.1 (8d0f1dd)
N           -2.25868926852434        2.22807099614080        2.56764054177335
C           -2.20044143961935        2.56117689083407        1.35833031398793
C           -3.14631617440072        2.03448119971246        0.31078209454936
C           -3.59707597053166        0.59579186293427        0.45808394696854
C           -4.46803691245905        0.06494453889276       -0.50015706311789
C           -4.88388453279555       -1.25540165137583       -0.45544917048735
O           -5.71835286466778       -1.84161739720529       -1.33696333877084
C           -6.27993838556558       -1.07608263574754       -2.37677594479751
C           -4.41408313382740       -2.10231523060618        0.58725300647621
O           -4.85613660449574       -3.37200875261386        0.54900769928961
C           -4.47298361313812       -4.26357601451651        1.57074597348261
C           -3.56157282148862       -1.56567573583141        1.54082008868287
C           -3.16393496180524       -0.23876771348753        1.47900639597871
C           -2.52829806206254        2.25162744248909       -1.08806015316155
C           -1.54710100448044        1.15427910926811       -1.50771422962777
C           -0.34420179606121        1.03647490071092       -0.57127161252564
N            0.57809539323017        0.01006249565636       -0.99831848944524
C            1.93167197448884        0.12114915614308       -0.50511584194943
C            2.94937714128470       -0.30351580919079       -1.58147850768469
C            4.34906173719567       -0.11323824199575       -1.07831154820664
C            5.01621079562567        1.08940803860915       -1.27117536191965
C            6.29861097981455        1.27944360280601       -0.78376927061824
C            6.94608052140815        0.26871318048786       -0.08421343681718
O            8.18625549226594        0.33870096433501        0.42888357896222
C            8.94347557856083        1.51346365443057        0.24915864953781
C            6.26921427873644       -0.96734342298364        0.12516628068732
O            6.96665647937052       -1.89173009595743        0.81039465090670
C            6.39565449753149       -3.15743139986128        1.04441508624478
C            4.98518463542989       -1.13162927963576       -0.37375087760702
C            0.03362850311591       -1.32657732104429       -0.97449463983944
C           -4.43547231627262        2.98180705496981        0.47212314071779
C           -5.21058932837835        2.61759193148650        1.73361976266268
C           -4.04444544815062        4.38863990205868        0.45087108747348
H           -4.82987964597282        0.69517388365024       -1.29594158535423
H           -6.87449584873735       -0.24439545004986       -1.98656672304027
H           -6.93028681365665       -1.75717384759787       -2.92221981503765
H           -5.51069044300364       -0.69220015813603       -3.05451179838025
H           -4.80486577523849       -3.91320861345162        2.55245003861361
H           -4.96563216444390       -5.20549885512382        1.33783333349651
H           -3.38916292993402       -4.41498111203632        1.58384528317577
H           -3.19983095695003       -2.17787361242217        2.35088410428098
H           -2.52349957031386        0.14830647528770        2.25337610573009
H           -3.32055165319778        2.29253345750177       -1.83603919819897
H           -2.02055241389388        3.21747082342122       -1.10726327116008
H           -2.07634218482259        0.20288949392759       -1.54254049816989
H           -1.18335079249985        1.37618739715856       -2.51241981661007
H           -0.70511479961449        0.83333259650481        0.45195486476214
H            0.19167812973100        1.98879782943892       -0.56277837666432
H            2.08336706632839       -0.49001298140941        0.39679212000423
H            2.13122707552821        1.16097164522982       -0.23989263036066
H            2.78096080518108        0.30610191869916       -2.46936590897603
H            2.78772388791339       -1.34778662010290       -1.84889643557885
H            4.53620971280551        1.88687483499867       -1.81721514054962
H            6.79244714140556        2.22169388393961       -0.95663368634708
H            8.46600169798278        2.37407368566940        0.72731885159289
H            9.10449830652610        1.72715703929085       -0.81161941805575
H            9.90133054523933        1.31966660077777        0.72820342230825
H            7.14689252384266       -3.71928603472076        1.59610610360322
H            5.48543597526176       -3.08140237631728        1.64745475924756
H            6.17187975643158       -3.67514906624485        0.10672885344823
H            4.46696483516971       -2.06626429454636       -0.22685818049153
H           -0.65050268752872       -1.46623422548238       -1.81059860259714
H           -0.51329970696537       -1.52549901174029       -0.04266958196731
H            0.83491248564001       -2.05352641934916       -1.07087546638658
H           -5.04756475716117        2.76396550424508       -0.41118711303579
H           -4.55356073198335        2.61865787007722        2.60026567853529
H           -5.65099606827093        1.62853723358791        1.64200539888030
H           -6.00716758405623        3.33893474971960        1.89620756100230
H           -3.99835777564831        4.95666104105152        1.36059126734646
H           -1.52098697214167        3.32825992973909        0.97741258994821
H           -3.78815636323335        4.88015812312476       -0.46851761133571
H           -1.62778907805718        2.69930996427898        3.20716255311122
