  25
        -42.07997194
 C          3.2103979108        1.1581632985        0.0097883854
 N          2.2707275575        0.0670084156       -0.0051557067
 C          2.5539642455       -1.2235279464       -0.0262061524
 N          1.4212734040       -1.9496638911       -0.0107769664
 C          0.3612698937       -1.0743064001        0.0171753267
 C          0.9050790443        0.2054217646        0.0213757263
 C          0.0805987227        1.3969280701        0.0286345577
 O          0.4848234773        2.5353561792        0.0414382990
 N         -1.2769753630        1.0663876468        0.0117432858
 C         -2.2294028102        2.1747976478       -0.0008502596
 C         -1.8588879920       -0.1702905083       -0.0085932159
 O         -3.0385093133       -0.3560929152       -0.0489497217
 N         -0.9662418633       -1.3273728333        0.0322506588
 C         -1.5294044159       -2.5474353695        0.0715160682
 H          3.7184851163        1.2042872244        0.9741619143
 H          3.9552874952        1.0273248198       -0.7740872441
 H          2.6689592225        2.0912328271       -0.1455896130
 H          3.5426767897       -1.6420445007       -0.0528322872
 H         -1.6658829796        3.1028527115        0.0484472087
 H         -2.8218885536        2.1396105131       -0.9137420739
 H         -2.8993565351        2.0926164813        0.8532624566
 H         -0.9252263112       -3.4307605750        0.1443679868
 H         -1.7385119298       -4.8798315646       -1.7716155308
 H         -2.6015889399       -2.5935006123        0.0612136245
 H          1.3717229915       -2.9589598673       -0.0389237420
