  25
        -42.16625414
 C          3.1070930295        1.1095002148       -0.4685629215
 N          2.1974900119        0.0627684521       -0.0886123390
 C          2.4401634738       -1.2298410650       -0.1026285795
 N          1.3684538150       -1.9368164837        0.2869372126
 C          0.2980207756       -1.0505996103        0.6784652957
 C          0.8935866581        0.2749794990        0.3245915233
 C          0.1181615982        1.4126381629        0.0971749479
 O          0.4540621774        2.5466299606       -0.1777537390
 N         -1.3141123094        1.1038360406        0.2065892997
 C         -2.1606592005        2.0953907547        0.3401028724
 C         -1.8404763246       -0.2127562509       -0.1277782634
 O         -2.9830012672       -0.3125172081       -0.4744264242
 N         -0.9514258254       -1.2330944608       -0.0528366967
 C         -1.4333180555       -2.5848861904       -0.2712472583
 H          3.7057318687        1.4166280745        0.3912899113
 H          3.7688497076        0.7621752361       -1.2591470144
 H          2.5351173463        1.9733403952       -0.8072391781
 H          3.3698835643       -1.6751340314       -0.4063269419
 H         -1.7637513456        3.0882659379        0.4785099939
 H         -3.2180679672        1.8944821393        0.2831820377
 H          0.0660471512       -1.1805405649        1.7588947320
 H         -1.3999858512       -3.1580984301        0.6562272176
 H         -0.8294864916       -3.0732393161       -1.0357451143
 H         -2.4629805138       -2.5265213339       -0.6176698393
 H          1.3489711702       -2.9342452461        0.4157452509
