  25
        -42.13559885
 C          3.6107613925        3.5838790462        0.0553058218
 N          2.2457094192       -0.4430890171       -0.0161720817
 C          2.3418541198       -1.7377828236       -0.0178078908
 N          1.1146195274       -2.3474767040       -0.0103923440
 C          0.1960641398       -1.3490497833       -0.0044854343
 C          0.9231389024       -0.1507335745       -0.0079995179
 C          0.2454167491        1.1246165766       -0.0097096671
 O          0.7665194763        2.2163147791       -0.0187129032
 N         -1.1446116213        0.9739332020       -0.0013543740
 C         -1.9540975317        2.1815902939        0.0009981594
 C         -1.8706473842       -0.2045820289        0.0064511361
 O         -3.0731870818       -0.2112514676        0.0157352351
 N         -1.1462584805       -1.4085729893        0.0014937633
 C         -1.8673793921       -2.6633205157        0.0004448587
 H          4.0461541331        3.6557339315        1.0350059773
 H          4.2488969012        3.5553960040       -0.8072937135
 H          2.5420539320        3.5285715194       -0.0601841485
 H          3.2670031451       -2.2792489327       -0.0228649665
 H         -1.2868172826        3.0400757954       -0.0054739805
 H         -2.5997951428        2.1972643732       -0.8778902847
 H         -2.5878637986        2.2027296156        0.8881916085
 H         -1.6274524789       -3.2407519546        0.8941668899
 H         -1.6218575256       -3.2415450518       -0.8912291292
 H         -2.9330112246       -2.4347051330       -0.0027210864
 H          0.9406644520       -3.3415931238       -0.0116534943
