  25
        -42.07945933
 C          2.9822420549        0.9032326262        0.9776918053
 N          2.3623939064        0.2009496009       -0.1209111137
 C          2.9924401664       -0.1348070631       -1.1543465661
 N          1.0996204447       -2.3016548197        0.2188518928
 C          0.3537972539       -1.2673698516        0.0939414030
 C          0.9412098012        0.0255565008       -0.0472577282
 C          0.1535577226        1.2302499476       -0.1181553200
 O          0.6393998613        2.3440956191       -0.2049116228
 N         -1.2204235364        1.0372139576       -0.0773532832
 C         -2.0836554447        2.1956879916       -0.1641215511
 C         -1.8487957714       -0.1918458133        0.0187155232
 O         -3.0508079103       -0.2750594278        0.0200325155
 N         -1.0356828136       -1.3096766669        0.1235651562
 C         -1.6984005375       -2.5923500973        0.2665777215
 H          2.7026406645        0.4358013456        1.9236369749
 H          4.0644425022        0.8891958176        0.8540822544
 H          2.6325098488        1.9405386247        0.9757748268
 H          2.6254516614       -0.6341906567       -2.0326921664
 H         -1.4625994725        3.0894851711       -0.1500208217
 H         -2.6683984113        2.1594092474       -1.0861179966
 H         -2.7849863441        2.1975861394        0.6720593097
 H         -1.4407152068       -3.0546188019        1.2228119121
 H         -1.4229784088       -3.2603143938       -0.5526874588
 H         -2.7745182437       -2.4191002867        0.2374815970
 H          0.6901850941       -3.2140879622        0.3799340955
