  72
        -99.31096742
 N         -1.4300486753        2.8937563887        2.3053596457
 C         -1.8577056259        2.1542398442        1.4430995110
 C         -2.9720203982        2.0588873313        0.5177731733
 C         -3.4687860745        0.6234601709        0.4427669422
 C         -4.4416754884        0.2607672824       -0.4888947683
 C         -4.9177911108       -1.0374925249       -0.5587385587
 O         -5.8573340129       -1.4787852841       -1.4238417054
 C         -6.4986384649       -0.5555727696       -2.2714735306
 C         -4.4065566736       -2.0199031954        0.3299586502
 O         -4.9297384221       -3.2574350750        0.1897557045
 C         -4.5532977904       -4.2628839276        1.1007133048
 C         -3.4395446294       -1.6511937343        1.2499466949
 C         -2.9791443141       -0.3419461216        1.3043010483
 C         -2.4264085911        2.5220016037       -0.8613224671
 C         -1.5204258992        1.4914547052       -1.5348599420
 C         -0.2677190450        1.2648043274       -0.7424549781
 N          0.4680492401        0.0465073831       -1.1330665782
 C          1.8938816643        0.1669312592       -0.7249965423
 C          2.8468816821       -0.6291588174       -1.6158950506
 C          4.2593482057       -0.4433590690       -1.1204992743
 C          4.9196758875        0.7559960973       -1.3226174923
 C          6.1997143783        0.9508007016       -0.8264057738
 C          6.8457456011       -0.0539858412       -0.1220467529
 O          8.0803493474        0.0308059416        0.4124918363
 C          8.7983718098        1.2363363179        0.2857667527
 C          6.1832031474       -1.2950984958        0.0713578082
 O          6.8891825101       -2.2269951994        0.7466230663
 C          6.3338067567       -3.5065755588        0.9321044750
 C          4.8993075710       -1.4633959710       -0.4219654866
 C         -0.1238621675       -1.2226860344       -0.6471108090
 C         -4.1579218968        2.9783642040        0.9829005143
 C         -4.6855300087        2.5330024875        2.3433582553
 C         -3.7922426371        4.4566725480        1.0199256917
 H         -4.8348227265        1.0053532267       -1.1616006479
 H         -7.0022541129        0.2307365360       -1.7008400021
 H         -7.2404506825       -1.1315513574       -2.8211452090
 H         -5.7975746177       -0.1027681967       -2.9804672880
 H         -4.7876923204       -3.9787099560        2.1310104980
 H         -5.1378364983       -5.1388549017        0.8267632048
 H         -3.4873676851       -4.5005983545        1.0208093288
 H         -3.0439018284       -2.3740953348        1.9447063287
 H         -2.2394080816       -0.0729607322        2.0458145772
 H         -3.2757109945        2.7310076557       -1.5114624392
 H         -1.8644656120        3.4460642891       -0.7277697637
 H         -2.0980967958        0.5659473340       -1.6931750915
 H         -1.2608010389        1.8741486162       -2.5295754507
 H         -0.4233635387        1.3018482730        0.3399172035
 H          0.4398049481        0.0355577849       -2.1545697147
 H          1.9857940795       -0.1561652452        0.3138040972
 H          2.1539557416        1.2263350550       -0.7730507405
 H          2.7693166338       -0.2659974288       -2.6437202738
 H          2.5962677328       -1.6907223415       -1.6042270782
 H          4.4450017619        1.5508132308       -1.8775000663
 H          6.6892645432        1.8947409620       -1.0000928615
 H          8.2624765719        2.0718546438        0.7467235913
 H          9.0085636867        1.4700714013       -0.7622854698
 H          9.7361304616        1.0743872336        0.8136679400
 H          7.0946339556       -4.0824627808        1.4552652307
 H          5.4271452350       -3.4671063146        1.5448690147
 H          6.1092776405       -3.9893851830       -0.0242590132
 H          4.3858728048       -2.4006661860       -0.2746014590
 H         -1.1312003272       -1.3372625340       -1.0413750893
 H         -0.1826195704       -1.1940614535        0.4396160248
 H          0.4784069588       -2.0746729781       -0.9544965852
 H         -4.9504035650        2.8338944399        0.2418099794
 H         -3.9404538846        2.7014347603        3.1165925174
 H         -4.9508788072        1.4783716391        2.3367248003
 H         -5.5732064599        3.1060545181        2.5977584380
 H         -2.9556644681        4.6302441923        1.6916934370
 H         -3.5386412013        4.8360722437        0.0341814542
 H         -4.6428724809        5.0246915125        1.3880658482
 H         -0.5708955540        2.8214394810        2.8259393341
