72
 energy: -99.270443718624 gnorm: 0.008937397336 xtb: 6.6.1 (8d0f1dd)
N           -1.92466225510967        3.24390882062662        2.04236423577630
C           -1.89537621442783        2.32467681480122        1.19812271482831
C           -3.05600129815557        1.94760782997509        0.31806445714748
C           -3.47230269801142        0.56619986429413        0.72188665556752
C           -4.55694754470032       -0.32556574965428        0.25844899143890
C           -4.66754359099509       -1.30371403349086       -0.70157131268110
O           -4.99605080196701       -1.39008895559032       -1.97958501193445
C           -5.33293322166216       -0.18664112759670       -2.64469725358025
C           -4.25944435636407       -2.42667834657521        0.23294853667460
O           -5.19153645021226       -3.42837670239494        0.44616906826843
C           -4.76642607967905       -4.43459582118088        1.33746140319890
C           -4.17041204929165       -1.32135203672130        1.35628746378767
C           -3.01810843995913       -0.36419084793676        1.59736846319681
C           -2.55896559271961        1.95880247408982       -1.15045476935467
C           -1.63564926725538        0.78811336986203       -1.52437977071917
C           -0.27738939568356        0.90270342979445       -0.94741245597455
N            0.43777086319316       -0.10603043726703       -0.46061882990333
C            1.83338447263545        0.07622009154085       -0.13821264855291
C            2.75000296925015       -0.39404804482860       -1.28472096189614
C            4.18819515533586       -0.16508673993217       -0.91371483456358
C            4.79279016450571        1.05833432557860       -1.15319655755159
C            6.10813680679512        1.28530235661462       -0.77933690760695
C            6.84610931033244        0.29106198079865       -0.15285551425237
O            8.12319732757513        0.39998069487066        0.25592125587296
C            8.81066263272662        1.61295445408277        0.05127609610531
C            6.23497556911812       -0.96968486933705        0.09421800138175
O            7.02397462139251       -1.88047269295643        0.69719769875060
C            6.51937985450187       -3.16962107275377        0.95192189909166
C            4.91734971395692       -1.17159884830625       -0.28530309419015
C           -0.10424041598858       -1.43826868021558       -0.34635327521903
C           -4.29785302964230        2.87507850248362        0.45707458009868
C           -4.88599189685960        2.81647087999768        1.86501828525509
C           -4.00148570483084        4.32312036405491        0.07992092507396
H           -4.82516461940130       -1.49657690261495        2.19254514045868
H           -5.79275267050925        0.52002965154514       -1.94948563627612
H           -6.03822723521816       -0.44911086646876       -3.43143250813605
H           -4.44181592469044        0.26084014698048       -3.09345183799475
H           -4.54461006958750       -4.02519903649304        2.32865718336334
H           -5.59049724609921       -5.13971011651173        1.41146156177235
H           -3.87550710478251       -4.94750102129367        0.95653528487186
H           -3.27817494535951       -2.84322487257521       -0.05753216780804
H           -2.21013702608347       -0.39387602495200        2.30519391146719
H           -3.43312825045658        1.92596954309038       -1.80027776968140
H           -2.03896749247020        2.89920700996608       -1.33629204173921
H           -2.10931532043187       -0.15513825141435       -1.25464974759560
H           -1.52952840097382        0.80286827312087       -2.61806092143740
H           -1.00988826073121        1.69322260757368        0.99780430004700
H            0.22943763838627        1.85060588906092       -1.04666887897612
H            2.06846804764210       -0.48632442030500        0.76887147881754
H            2.02473756131439        1.13336218028130        0.05672553700183
H            2.50162649525087        0.16955238280332       -2.18572506165052
H            2.57602538444284       -1.45286813181762       -1.48010595866754
H            4.24339238102861        1.84550334051048       -1.64688903352187
H            6.55359063388761        2.24451002367374       -0.98578378682646
H            8.32256038874337        2.44262052531928        0.57160564278300
H            8.89783345921260        1.84911605201164       -1.01345789474461
H            9.80366475872212        1.45936524175470        0.46919801938553
H            7.33791163445753       -3.71752178839581        1.41451654378027
H            5.67011845667366       -3.13933681478743        1.64214206156975
H            6.22316126215606       -3.67452253975621        0.02721072343625
H            4.44637604535842       -2.12556231890487       -0.10648575993294
H           -0.31179170768536       -1.86775865107796       -1.32922975825188
H           -1.03177672664445       -1.42007366161048        0.23235694380461
H            0.61172526816742       -2.07508834408127        0.16696784984846
H           -5.04954002747990        2.47992029600255       -0.23819108138455
H           -4.17255597654665        3.20562436540453        2.58425332421951
H           -5.14550111128658        1.79739352520507        2.14016760113987
H           -5.78764662828944        3.42159310558219        1.90814064698422
H           -3.21775752002369        4.72193642811677        0.71663553982289
H           -3.70450890938072        4.42109887060789       -0.96098113423817
H           -4.89655513394662        4.92132999771443        0.22792662457576
H           -1.08537466818177        3.41334258251713        2.58779236878096
