25
 energy: 102.372746396769 xtb: 6.6.1 (8d0f1dd)
C            2.82868055194747        1.23089707148434        0.11945601342890
N            2.13917766088272       -0.05218457260292        0.03900617323098
C            2.58464342985487       -1.28845192350520       -0.07349115858549
N            1.56559280033740       -2.17436835911026       -0.08097577100144
C            0.34578207732818       -1.48557162449989        0.00498806141620
C            0.77773584437431       -0.12975995020744        0.10180038037140
C           -0.13166077382938        0.87588768275631        0.38906536179704
O            0.07774188361022        2.03957150185724        0.68578995586989
N           -1.36310430569127        0.22068758732520        0.37742879405835
C           -2.05937518286097        3.46754295103561       -0.35643046946562
C           -2.47678509564593        0.34521994617945       -0.04265185810291
O           -3.38433429454527        1.00202627236938       -0.32403681908444
N           -0.84881929022161       -1.90010489794470        0.00769136312951
C           -1.10652861226124       -3.28710601709594       -0.00196065892391
H            3.58461478608840        1.22896578831036        0.89706458381343
H            3.30158608919140        1.53071755711589       -0.81786015681945
H            2.07767592481678        1.99160594252040        0.35976111151104
H            3.59326728929463       -1.61419285645671       -0.15802734271489
H           -1.35566665458393        2.81631703928963       -0.77175911655338
H           -2.97034497936115        3.65807860096849       -0.81735751826085
H           -1.77819363768683        3.84303245684587        0.58623882767711
H           -0.63413289445433       -3.71353442852338        0.88598084888623
H           -0.63502464652610       -3.68530554830056       -0.90026735251044
H           -2.19818644830521       -3.38852359884907       -0.01489635218649
H            1.65469298123678       -3.16963363868677       -0.16345379426253
