25
 energy: 136.915675025416 xtb: 6.6.1 (8d0f1dd)
C            2.77071800472321        1.23220935232013        0.12631680058745
N            2.11338628560744       -0.05934139142017        0.04148399591682
C            2.59528308232883       -1.28482313004665       -0.07002526021557
N            1.58183995662289       -2.18724275018061       -0.07035932945799
C            0.37436184014468       -1.50760599973978        0.03036110385495
C            0.75307203436565       -0.16826283414038        0.12245156592644
C           -0.24525978476136        0.83762635605789        0.34167291572048
O            0.01762709256452        2.00915917348216        0.59642713248304
N           -1.47454325866195        0.25755644035333        0.21264023686375
C           -2.29050633836836        3.27323753408764       -0.25586446265042
C           -2.01885760162612       -0.85526069579564       -0.04448062196743
O           -2.81847305546756        1.99021532261282        0.01779258346549
N           -0.86680925860786       -1.94307301327073        0.02293671381094
C           -1.08433467803229       -3.34280302078788        0.00504141913839
H            3.57943695543520        1.20559915206900        0.84882563385494
H            3.16282919377128        1.58055440321075       -0.83278012499872
H            2.00620059552810        1.95312787313468        0.44435735212167
H            3.61435525776893       -1.57174613163671       -0.16522281701719
H           -1.46256370391391        2.89484913472843       -0.81045486722359
H           -3.00531017452864        3.85081407246642       -0.85580465718175
H           -1.80690529429861        3.92168990538605        0.48799417872743
H           -0.59049663297163       -3.76958396429047        0.88714633999903
H           -0.59284349105706       -3.73315456025093       -0.89093364968847
H           -2.16734774724300       -3.49059353014086       -0.00701539191788
H            1.70558464398199       -3.18063076909231       -0.15947059556291
