25
 energy: 4.740472361035 xtb: 6.6.1 (8d0f1dd)
C            3.14706686157125        1.20982032152758        0.10371798347289
N            2.25488372635461        0.07747526479142        0.04880092229042
C            2.56096473117004       -1.28400948103349        0.01912227116108
N            1.35618956417415       -1.98263033096325       -0.01242191747988
C            0.31886341702483       -1.11285335280973        0.00935622575556
C            0.85622567796886        0.16318822568977        0.04681905887442
C            0.05176665453070        1.30191426753567        0.06132355921800
O            0.47532706747887        2.46497686109351        0.12884027560326
N           -1.36054158816257        1.07196448250727       -0.01326530436968
C           -2.09112273551139        2.34540552976373       -0.10274469763383
C           -1.96080162256150       -0.14918153997624       -0.04889362002422
O           -3.16654722740731       -0.23285929547602       -0.12262028440042
N           -1.04653853886837       -1.32169633168814       -0.00451900087404
C           -1.43620910574622       -2.72259099734730       -0.04443800798180
H            3.70114425218387        1.27191648102843        1.04878272598502
H            3.86863963868347        1.20121298251369       -0.71981230766764
H            2.52827706932297        2.10504507095579        0.01824854494670
H            3.54086157418881       -1.72138525312859        0.00324289637374
H           -1.27302245843056        3.06242391714434       -0.15472029397083
H           -2.77213414467692        2.41608665139824       -0.95505556840817
H           -2.69262741701363        2.53958320281526        0.79274883290670
H           -1.05345067121691       -3.26268625695873        0.83165247959188
H           -1.03212407587290       -3.22481813163375       -0.93388297611215
H           -2.52102112169071       -2.76184023181278       -0.06312224953251
H            1.28271897250731       -2.98815325739301       -0.05226542594086
