25
 energy: 128.418371368957 xtb: 6.6.1 (8d0f1dd)
C            2.79895501060552        1.23073860935972        0.12388452059037
N            2.10647546320846       -0.04864084614385        0.03889487701407
C            2.56488434421445       -1.28722427737679       -0.06994590395925
N            1.53118774295738       -2.16893896933022       -0.07222791903717
C            0.34038353191359       -1.46085799811208        0.02323578420946
C            0.74166522954309       -0.13311269158331        0.10483514382473
C           -0.22561352339956        0.88552627139035        0.34894213665136
O            0.06031000519725        2.03428125678507        0.66553926217164
N           -1.47469468472755        0.33195096364068        0.20100173853584
C           -2.25980885408781        3.13977329214459       -0.26203990478215
C           -2.00191716791395       -0.82766124033987       -0.05944546593378
O           -2.83322105169224        1.85385319135692       -0.05535186711285
N           -0.91423527958007       -1.86893246377220        0.01815192944991
C           -1.12779296401365       -3.26431515631397        0.00778091654742
H            3.57941550974703        1.20870806798819        0.87250135785346
H            3.23285030370321        1.55057689983101       -0.82428727762069
H            2.04233482363996        1.97399473292781        0.40224901694965
H            3.57644840942856       -1.60198969441923       -0.15938604397263
H           -1.38545978018921        2.90527846682644       -0.86176297145917
H           -2.95413864109306        3.74271619451961       -0.84451818684148
H           -1.84011729429863        3.77622984226427        0.52746016064328
H           -0.62182161886474       -3.68976657906293        0.88595951694033
H           -0.62720188088596       -3.65432503639509       -0.88449892136850
H           -2.20942053899991       -3.42135090470768       -0.00896808825638
H            1.63964495463135       -3.16432947073951       -0.16130872306096
