25
 energy: 96.456147006840 xtb: 6.6.1 (8d0f1dd)
C            2.88561995254898        1.23899547342259        0.11405282364031
N            2.14237592537200       -0.02563623571505        0.04394234425796
C            2.54772321090575       -1.28284777496019       -0.05114652146742
N            1.49462573323768       -2.13063665506848       -0.07962008125819
C            0.29676475525558       -1.39603617074521        0.00347063988001
C            0.76983926289883       -0.05178310633012        0.08686317975137
C           -0.08650512497818        1.01404302916676        0.36427765329566
O            0.19541407356438        2.17051612219108        0.63567710724428
N           -1.35387329249788        0.47832870011138        0.39403866911029
C           -1.97132080304941        3.36962861211054       -0.35889061194964
C           -2.45737694209969        0.32238298655733       -0.01177817418195
O           -3.49955368580299        0.75229706709669       -0.29068797793581
N           -0.91114952573039       -1.78224563773384        0.00770327661338
C           -1.17951600329421       -3.17262910142564       -0.01389153212580
H            3.58946704915304        1.25487631667662        0.94089417071130
H            3.43461562503334        1.49518014929404       -0.79891663687519
H            2.15138044028969        2.03780189016351        0.28056171787939
H            3.54125453946161       -1.66449481081479       -0.12435264920806
H           -1.08602447981611        3.00211813803450       -0.80604818756451
H           -2.87411259434111        3.33137834226992       -0.90360555661951
H           -1.98285406006146        3.54587721062596        0.68616226715042
H           -0.72160158263605       -3.62024986880360        0.87104344731154
H           -0.71761353008955       -3.58403557027353       -0.91157553098974
H           -2.27328417871087       -3.26352053509368       -0.03001476736500
H            1.54913187804478       -3.13090941054001       -0.15544031300023
