25
 energy: -1.531256518200 xtb: 6.6.1 (8d0f1dd)
C            3.17905563277139        1.20273977403997        0.09817497966089
N            2.27097152377673        0.09225221427012        0.04285588061493
C            2.57445459517738       -1.26539967906448        0.02513106523902
N            1.37783814997649       -1.96485303253097       -0.00582953766637
C            0.34427160210440       -1.09555946723369        0.00486799155163
C            0.87395978121139        0.18686496079373        0.03435061220557
C            0.05791469292228        1.32117527507850        0.02826831620107
O            0.43808083206920        2.49826904972277        0.07545531987414
N           -1.35401846657039        1.03198740901495       -0.04452103212011
C           -2.14472157296262        2.26383734440852       -0.09034779753763
C           -1.93347869975808       -0.19932788067491       -0.05234763711536
O           -3.13739235368384       -0.33302696612542       -0.10076566074651
N           -1.01360373755454       -1.32126822328445       -0.01551325793783
C           -1.44737649716120       -2.70234274121013       -0.04983735708341
H            3.71250351341948        1.25747090824251        1.05511221467078
H            3.91761764119046        1.15147727969371       -0.70716836150255
H            2.58377658703057        2.10859601280947       -0.01877623693972
H            3.55354040436128       -1.69633837066346        0.01919611146241
H           -1.39675392610924        3.05369410797719       -0.11083932302273
H           -2.80456516645962        2.31144720995892       -0.95762347494454
H           -2.76675164821937        2.38138338748948        0.80123152577502
H           -1.09081721724425       -3.24618931213379        0.83180352499393
H           -1.06770351236876       -3.21318052222474       -0.94215236021047
H           -2.53416280666350       -2.69586031185075       -0.06755009378099
H            1.31056623286285       -2.96989523961297       -0.03692002221212
