25
 energy: 104.080942813692 xtb: 6.6.1 (8d0f1dd)
C            2.73743913899005        1.21559801702877        0.12054536135358
N            2.13424653371246       -0.08939830663882        0.06295955760862
C            2.73885285418987       -1.27824436869562       -0.02682071953841
N            1.78809159781846       -2.26180329512164       -0.03220221414632
C            0.54780423261860       -1.67057148881735        0.05785829768001
C            0.78041212939632       -0.29798175708066        0.12052413598186
C           -0.33491401250940        0.60167203862082        0.24663556498848
O           -0.23382219900760        1.84999988074835        0.26760153007851
N           -1.50927862866782       -0.04215944336148        0.28430375544359
C           -2.62638625873453        4.04002772233666       -0.34633583314055
C           -1.82855041973124       -1.28325758571534        0.09373683141436
O           -2.59054140615176        2.74660964193030       -0.09821036389971
N           -0.67304393601216       -2.19180482061526        0.05475849014808
C           -0.90535365748271       -3.60391653045953       -0.00288874951290
H            3.46449384471902        1.26772297286821        0.93304178056317
H            3.19010264176185        1.46779040980760       -0.84046459520034
H            1.94719163672830        1.94444625523615        0.31258466587425
H            3.77796013722514       -1.45885868824774       -0.12579881792706
H           -1.62725544795646        2.58815684549083        0.17212371912500
H           -3.56304282509773        4.42660386611747       -0.63682200486581
H           -1.76316566106842        4.69667297240784       -0.22886919034453
H           -0.46412470142806       -4.08398874017111        0.87566110506419
H           -0.46050985983091       -4.00295103998032       -0.91623600481102
H           -1.99076672237926       -3.75448383945955       -0.00237300294394
H            1.97031013870495       -3.24761516349342       -0.10974131073037
