25
 energy: 126.815030478806 xtb: 6.6.1 (8d0f1dd)
C            2.72273951075263        1.23585144535862        0.14949483529808
N            2.12067841153679       -0.06991076382533        0.06204559913213
C            2.65218890490125       -1.28078837032369       -0.05591913958281
N            1.66727475639077       -2.21996251089414       -0.06166577952424
C            0.43689312713049       -1.59269797713744        0.03190812300544
C            0.75699257302774       -0.22684261281512        0.12772864645251
C           -0.27063530957311        0.70163495079145        0.30629406046684
O           -0.12704724781173        1.93886277143933        0.44235653411546
N           -1.47586001105151        0.07406934143913        0.30649029159902
C           -2.44071687704062        3.75551328372124       -0.35708565695721
C           -2.04922964912494       -0.99306047272022        0.01276948724710
O           -2.57597890607350        2.41822995909786       -0.18565205100962
N           -0.76012710480774       -2.08763376042875        0.01196831463138
C           -0.99019653052061       -3.46859134104217       -0.00243915201451
H            3.55302708720065        1.22639295792364        0.84884334390939
H            3.03299150749175        1.60667643949471       -0.83068458697267
H            1.94102160152773        1.90494484136352        0.52220689455718
H            3.67906290791129       -1.50697953387992       -0.15895305735952
H           -1.62313550396234        2.32596014534386       -0.00653319684112
H           -3.29403596568330        4.18613037360169       -0.73865198194769
H           -1.62441050905250        4.30194667612407        0.12173051360007
H           -0.51680609112047       -3.90109721581087        0.88655188124193
H           -0.52353514741626       -3.86385470168049       -0.90546573857151
H           -2.08051727130743       -3.58758763687234       -0.00689672414802
H            1.80741019415461       -3.20798250364737       -0.15474243691330
