25
 energy: 90.900830567570 xtb: 6.6.1 (8d0f1dd)
C            2.95996425804901        1.22785611391434        0.10805906014545
N            2.16722383857408       -0.01684213538957        0.05396477057512
C            2.53743226450549       -1.29558563323777       -0.03415407139070
N            1.43931300327426       -2.09855587778734       -0.07106741737542
C            0.26883261322401       -1.32039920132567        0.00391509678512
C            0.78360211547664        0.00054452408216        0.08650628791973
C           -0.04849255089901        1.11256878977630        0.32293834766637
O            0.35034702144341        2.25023248927288        0.54581208889802
N           -1.36762743130681        0.79124187407339        0.29057267763155
C           -1.94535120326315        3.13037344079497       -0.32328628115665
C           -2.40373585057361        0.26681937636548       -0.01608773482006
O           -3.52238865951024        0.44150019418216       -0.25383509365311
N           -0.96486458234574       -1.66487529265921        0.00459518854056
C           -1.25597149575596       -3.05093842420637       -0.02455197253608
H            3.61688327072722        1.27472680255702        0.97325808797973
H            3.57028414964083        1.41803019951998       -0.78321906553315
H            2.24935583200059        2.06143048568655        0.19603067369615
H            3.52175819211149       -1.71685081234203       -0.09231166747029
H           -0.94783407533161        3.09430843650773       -0.70695669977800
H           -2.76939135876196        3.05879804335707       -0.97953192062399
H           -2.17369791539446        3.30085223472671        0.70301625990711
H           -0.81556183340277       -3.53229319335214        0.85410947606678
H           -0.80696214608132       -3.48796682056729       -0.92018498062095
H           -2.34972661707526       -3.12964925717892       -0.04187983749167
H            1.45370376401088       -3.10192397709700       -0.14527086607208
