25
 energy: 14.064265841318 xtb: 6.6.1 (8d0f1dd)
C            3.11464716611661        1.21348966879065        0.10726887261331
N            2.24181425306109        0.05662641080965        0.05468874533467
C            2.55011049175761       -1.30537265119177        0.01095809563547
N            1.34016292570769       -2.00445627340926       -0.02095329160373
C            0.29533498385436       -1.13681814176534        0.01415353651228
C            0.84299102968180        0.13279150138002        0.06343853268209
C            0.04912298333747        1.27409418957599        0.11187540505824
O            0.50915848951954        2.42491610703980        0.19469776324442
N           -1.35839428611552        1.08641378730125        0.04246537499414
C           -2.03092270986193        2.41186259015467       -0.10843996257111
C           -1.99994237091879       -0.11255327435564       -0.03427870883649
O           -3.20224231905182       -0.13722153274168       -0.13639800633449
N           -1.07525125303241       -1.33672793660491        0.00809305964321
C           -1.42232411348174       -2.75276200650754       -0.03916969025992
H            3.68722552666867        1.28765851980276        1.04038351828240
H            3.81740407373837        1.24645005955025       -0.73248673934373
H            2.47158903949676        2.09589867623530        0.05021217722773
H            3.52983435311424       -1.74881505521299       -0.01406556770015
H           -1.15152826613493        3.05493226718288       -0.19414401622197
H           -2.72872695633660        2.50463010905079       -0.94894495592939
H           -2.61047266225447        2.68851174101597        0.78372828538558
H           -1.01454227863961       -3.28611558116560        0.83209400963225
H           -0.99542275205189       -3.24225664454747       -0.92723047818319
H           -2.50422489114010       -2.83256552433298       -0.05899710380597
H            1.28021878616150       -3.01082341843372       -0.07605409438650
