25
 energy: 131.361409052244 xtb: 6.6.1 (8d0f1dd)
C            2.74461971723364        1.23715694951224        0.13770049780570
N            2.12244399548377       -0.06419495982068        0.05309235369497
C            2.63246446297042       -1.28413367816055       -0.06392000903573
N            1.63405201432588       -2.20791875714014       -0.06687855356154
C            0.41055709866590       -1.55999470171277        0.03186547273834
C            0.75985706225487       -0.20461150639236        0.13601321234739
C           -0.25047878929213        0.75109349139400        0.31746993801045
O           -0.07666870622645        1.97928980113884        0.47121133545472
N           -1.46921346889960        0.15448859299647        0.25919738309255
C           -2.42292422605251        3.65722588575151       -0.36047017072772
C           -2.05194346253145       -0.91098460059957       -0.00987131685114
O           -2.59624448867228        2.32308211171191       -0.21448526424437
N           -0.79698415131117       -2.03566424665582        0.01558353514630
C           -1.02957541501904       -3.42198507299918       -0.00234401338632
H            3.56570899011164        1.21352197626136        0.84544258911175
H            3.09856984518281        1.59949434834563       -0.83137999060691
H            1.97297835454278        1.93344183474513        0.48251127195580
H            3.65581801360774       -1.54043346524137       -0.16569415088530
H           -1.62653287322555        2.26876323649985       -0.11741324103342
H           -3.24845837068550        4.12946020715844       -0.78469204671967
H           -1.63331127620289        4.17449919625027        0.18702871102534
H           -0.55077657165894       -3.85034999780087        0.88514526660474
H           -0.55414321734935       -3.81360444937444       -0.90332252989453
H           -2.11635270317568       -3.54162594051664       -0.01052131306801
H            1.76324865088602       -3.19806174968948       -0.15942167578305
