25
 energy: 99.222029851702 xtb: 6.6.1 (8d0f1dd)
C            2.75284097714924        1.21853854473308        0.10791066390172
N            2.12758862462506       -0.07297669057262        0.07007501797283
C            2.73102553301730       -1.26920159671822       -0.02310631357366
N            1.77280402846884       -2.24553001476729       -0.03484261432511
C            0.53411645935544       -1.64854680630257        0.05247301963733
C            0.76425495823223       -0.27817846604711        0.12821456081228
C           -0.37270107378350        0.61305678336944        0.20876409971334
O           -0.28772252988842        1.86724749928328        0.22293647350948
N           -1.54714977226249       -0.02884546719104        0.24609487617236
C           -2.67333847678832        4.13972606434263       -0.36191024756345
C           -1.80604692546908       -1.31362849110552        0.12935497639364
O           -2.63702264252195        2.86219028969035       -0.10449300289817
N           -0.68833521804771       -2.18853790140948        0.04948267735845
C           -0.91327573212370       -3.61861873708689       -0.01366010290597
H            3.41682994463738        1.29116919463833        0.97108179683751
H            3.31023636420566        1.39823525695138       -0.81200599395643
H            1.96612168569156        1.96681448550512        0.18426399479852
H            3.78273263488469       -1.43490196713851       -0.08388879356003
H           -1.68094121282558        2.50505451639062        0.10173750835226
H           -3.64623720040505        4.54433230790855       -0.55986717373102
H           -1.79171140347440        4.74435279316561       -0.39096923488783
H           -0.50174554192593       -4.13354358817865        0.85939793263198
H           -0.48137439309122       -4.04569892475948       -0.92133413803137
H           -1.98935338970214       -3.78569996950974       -0.01814715169515
H            1.96343982763570       -3.23069111083962       -0.10550120477303
