25
 energy: 93.961164769395 xtb: 6.6.1 (8d0f1dd)
C            2.92247344681997        1.23549602987346        0.11102513791795
N            2.15539220733242       -0.02150701809912        0.05003805885935
C            2.54064463942129       -1.28968912516521       -0.04330793733678
N            1.46617749975627       -2.11467167255800       -0.07749798642076
C            0.28119364118925       -1.35740846043874        0.00444836642915
C            0.77709540716880       -0.02324108218534        0.09076844485250
C           -0.06604611813986        1.06903147426568        0.34940067826296
O            0.26774049550553        2.21778213959521        0.59711759157777
N           -1.35405994369029        0.61903136906310        0.33832531932181
C           -1.94757996378284        3.25148733817867       -0.35380316131183
C           -2.44701192084670        0.30820187794107       -0.01292252044276
O           -3.53298193731974        0.60907542806043       -0.27558917464548
N           -0.93659980831919       -1.72679019928540        0.00944152543290
C           -1.21763841438628       -3.11110756698289       -0.01896545920683
H            3.60268749355261        1.26751678701390        0.95676693488835
H            3.50227744814203        1.46207999691775       -0.79205458647743
H            2.19844396872345        2.05171948848463        0.23808323562929
H            3.52771342473495       -1.69468491956863       -0.10688877280832
H           -0.99740862589229        3.07374995463147       -0.79622777369821
H           -2.81597298890655        3.19290820902468       -0.94767928816501
H           -2.06119217955677        3.39696733922626        0.68938319946014
H           -0.76847608301199       -3.57789455266229        0.86159747524649
H           -0.76183072453283       -3.53433341570880       -0.91602251000256
H           -2.31213283187227       -3.19422534717846       -0.03624833147405
H            1.49933889733333       -3.11675957339925       -0.15151654906745
