25
 energy: 63.437939776280 xtb: 6.6.1 (8d0f1dd)
C            2.99823720707208        1.22357177645452        0.10866441439056
N            2.16502687902094        0.00829261643404        0.06366290392191
C            2.52862369437915       -1.28753979819804       -0.02669172402897
N            1.40178332809420       -2.06545526407444       -0.08538623443173
C            0.25547159019063       -1.26551707275080        0.01409712637457
C            0.76429403826419        0.04852626100560        0.09266883232535
C           -0.03363938191677        1.20611775928106        0.24847927972505
O            0.46777232059862        2.31496072356213        0.47057802975315
N           -1.41900492751234        1.15283216810233        0.04620908324868
C           -1.89098720039449        2.66403883107219       -0.20810637804310
C           -2.33598431802407        0.19667843980764        0.03226115254221
O           -3.48049876715219        0.37450934728949       -0.25115132415904
N           -0.99419562276609       -1.58887096430280        0.03986743547591
C           -1.30093148506573       -2.97760067788454       -0.02755559850092
H            3.63309712298840        1.27440385761068        0.99245799679594
H            3.63693320948486        1.37012296190763       -0.77105139288563
H            2.31035697542051        2.07730245707284        0.15798969754272
H            3.51382689254831       -1.71942295520193       -0.06489716207507
H           -0.95726304062512        3.09832857704229       -0.54808967357213
H           -2.68567749083543        2.80310967504294       -0.93823792450213
H           -2.26542981769756        3.11988639300682        0.71556352619816
H           -0.87200148730926       -3.48048415062169        0.84523453775996
H           -0.85638137836672       -3.42049108915909       -0.92498758600951
H           -2.39134830974287       -3.05413237819702       -0.04867776687605
H            1.40096457498301       -3.07153050829393       -0.13135550866810
