25
 energy: 113.336621673059 xtb: 6.6.1 (8d0f1dd)
C            2.70422195215886        1.22945041913481        0.14474944314927
N            2.11873592743965       -0.08104898409369        0.06103683597160
C            2.67208896691085       -1.28899162430658       -0.04581967006423
N            1.68888790184573       -2.23717316348606       -0.05338036895614
C            0.46733722698313       -1.60901816286154        0.03795631602283
C            0.76146241014999       -0.25302683514252        0.11285111573406
C           -0.32014139721154        0.65297818913530        0.28213276904014
O           -0.18137191800440        1.89340890189282        0.38605416080750
N           -1.50961672183033        0.02723720794620        0.30594336605651
C           -2.48767231611272        3.83222906492790       -0.29674558105147
C           -1.92800773549072       -1.15989201532722        0.04121759165079
O           -2.60970565151789        2.50984445008312       -0.15652662183084
N           -0.76110075145969       -2.09489268451544        0.02202484706959
C           -0.97126699863941       -3.49271337785360       -0.00002568504138
H            3.53314772823334        1.24174085622169        0.85059943890866
H            3.00163081132847        1.59067539897767       -0.84176508313902
H            1.92435169040302        1.90463083501114        0.50616092379504
H            3.70545208766125       -1.49033321538348       -0.14904897919288
H           -1.69630635661916        2.35686480305618        0.07641016555003
H           -3.32606554951729        4.26792795895758       -0.74389614661970
H           -1.63346293547797        4.41761691215569        0.07680619599477
H           -0.49643157674993       -3.93414914151152        0.88483308784218
H           -0.49984619318662       -3.88856503320914       -0.90403928251841
H           -2.05529023459302       -3.63557510781211       -0.00389864290908
H            1.84212405099085       -3.22619745913628       -0.13528651454130
