25
 energy: 25.633591147221 xtb: 6.6.1 (8d0f1dd)
C            3.08201663917779        1.21645673805721        0.10876315974143
N            2.22505242085859        0.03964125699590        0.05734900774001
C            2.54024275644344       -1.31974641575548       -0.00041033777082
N            1.33123792655802       -2.02151192367884       -0.04177848021694
C            0.27496694076861       -1.15895560441841        0.01259902656461
C            0.82542612198478        0.10932272450638        0.07758981128318
C            0.03642162074248        1.25572227095707        0.15895942938737
O            0.51623223863083        2.39764943635438        0.27297092202756
N           -1.36672765876846        1.09753246797842        0.05616157051615
C           -1.98469980118802        2.47747659663753       -0.13513702973123
C           -2.05370137102755       -0.07141598777519       -0.03337063375112
O           -3.25088373511585       -0.04089375501304       -0.16061984342365
N           -1.09689662242468       -1.35916383897055        0.01151303294477
C           -1.40488708818444       -2.78694550393664       -0.03569143173356
H            3.67390488902725        1.28384753121148        1.02829375451910
H            3.76488456227502        1.29284803923357       -0.74611100225443
H            2.41916180938433        2.08770251396383        0.08601932504259
H            3.52006653804590       -1.76614426476979       -0.03292323754877
H           -1.07509318297071        3.06888255522582       -0.29325579951851
H           -2.71216005914224        2.59054036850292       -0.94659842263500
H           -2.50874183480603        2.82439648889479        0.76855734144159
H           -0.97501435573115       -3.31128414289270        0.83232387118897
H           -0.95836922195993       -3.26470074869872       -0.92202885996757
H           -2.48357680626981       -2.90198162772705       -0.05586400762827
H            1.29754744083028       -3.02906941113144       -0.10415306388442
