25
 energy: 52.739061629174 xtb: 6.6.1 (8d0f1dd)
C            3.22384185721218        1.51432536777501        0.15730916891164
N            2.55854668933093        0.23808505835190        0.00813551362322
C            2.98403497218542       -1.01478032605914        0.13512941887641
N            1.92591497934094       -1.87370429003806        0.09918477767180
C            0.75036268794830       -1.14767526676058       -0.04361741210930
C            1.20291391822028        0.17978938581748       -0.12593959433931
C            0.31589102479729        1.29913618968384       -0.17412505081265
O            0.64474407877539        2.47877650009694       -0.23993284183697
N           -0.97358225126585        0.88403519564526       -0.10873696080962
C           -1.99302451699637        1.91511418434764       -0.05228375815930
C           -1.41379661317832       -0.45758207506429       -0.04562099852593
O           -2.62181661246504       -0.50692012414811        0.03593564101043
N           -0.52584105176297       -1.51075140304453       -0.04247393052083
C           -3.22101238952292       -3.05478454378302       -0.14148088929752
H            4.09012739825831        1.43525909917625        0.80593662435134
H            3.53878880710386        1.91438676283000       -0.80911822906382
H            2.49886627505631        2.21586657087747        0.58561711547376
H            4.00587398779486       -1.32477242133099        0.20245427240993
H           -1.44342513391203        2.85308945889770       -0.06308963964976
H           -2.65467253342079        1.83157199050749       -0.91088868537628
H           -2.57816707457831        1.81684566542178        0.86083845014886
H           -3.01222989213225       -3.66046452605844        0.70004739155278
H           -3.07856397249055       -3.39618369493400       -1.13225007625688
H           -3.44756048302658       -2.03574817955394        0.01150052486336
H            2.01537967848519       -2.87623420296933        0.18731416603793
