25
 energy: 37.859849761664 xtb: 6.6.1 (8d0f1dd)
C            3.59907543881391        1.84245976952742        0.11179470866674
N            2.90959636373561        0.58005924785873        0.07511310898832
C            3.44019504062762       -0.63231085838141        0.10810009815501
N            2.46026236648108       -1.56039327666740        0.07167185421652
C            1.24059382788077       -0.91075021114901        0.01528410390035
C            1.55066157671079        0.45329948980184        0.00803225005658
C            0.49272961814887        1.42895699892278       -0.03912402672822
O            0.66292217641687        2.64204560909972       -0.05819824957600
N           -0.73750030662349        0.82144758204937       -0.04947793094601
C           -1.90688075803105        1.67709324301363       -0.06271925901495
C           -1.00204376475332       -0.59107837734701       -0.03705846009106
O           -2.15538328613330       -0.95245234338286       -0.04642270219454
N            0.05220075046320       -1.44318783195575       -0.01096887481545
C           -4.65113481129707       -3.57387219902721       -0.18866667032953
H            4.28521031213599        1.87945412053079        0.95801714339425
H            4.14834249700158        2.00042416753650       -0.81557856400768
H            2.84742068924783        2.62753860820058        0.20766835975295
H            4.48787500308521       -0.84838439610686        0.15847503592834
H           -1.56216428676968        2.71024300663679       -0.05348995208671
H           -2.49679254532195        1.47604821275200       -0.95634431840729
H           -2.52103314980743        1.46948758879163        0.81333556771273
H           -4.92096644200339       -4.09543865612557        0.70544055445462
H           -5.03861681191815       -3.87102106161591       -1.14085099364401
H           -4.08291670577070       -2.67530811870386       -0.11362189989604
H            2.58216203053022       -2.56017972303071        0.09220219267549
