72
 energy: -99.387298883818 gnorm: 0.002043695109 xtb: 6.6.1 (8d0f1dd)
N           -1.55025949051003        2.76362439386783        2.37758334221230
C           -2.34428191523359        2.46568337019515        1.53472457496537
C           -3.14819953799009        2.06303251273311        0.43256241684330
C           -3.57761651829253        0.60354425698328        0.53578953418755
C           -4.36995638418384        0.05884975337423       -0.47448465579086
C           -4.77380399405455       -1.26478237489621       -0.43101743627406
O           -5.53815823407978       -1.87491178616079       -1.35990010702717
C           -6.03578642733370       -1.12461668912591       -2.44262821084298
C           -4.37046071262554       -2.08360222712606        0.65820055582345
O           -4.80090960902577       -3.35918623265277        0.61197810029686
C           -4.46789659311831       -4.23355265802322        1.66534368775939
C           -3.58937661978048       -1.52753079637799        1.65843794236189
C           -3.19827797538175       -0.19629655163532        1.59888055019195
C           -2.33074430333500        2.32289619337038       -0.87484491086490
C           -1.47782558853347        1.15290903056403       -1.36238059228926
C           -0.38557275317060        0.72127370767243       -0.37988376054817
N            0.57292222980041       -0.14693087721337       -1.02951610741855
C            1.91243792867211       -0.14876638155591       -0.48338834314484
C            2.95912452755772       -0.36020000675091       -1.59332693486291
C            4.34754950269643       -0.14877853061002       -1.06551128850979
C            4.98800914033445        1.07241121060622       -1.21517456417972
C            6.26800522549749        1.27157023581765       -0.72246524589218
C            6.93647602500640        0.25125870328996       -0.06028949896053
O            8.18090356576426        0.32789065839484        0.44977255507968
C            8.92092366723010        1.51428081011913        0.27960726838259
C            6.28474335136121       -1.00201895891031        0.11027956520015
O            7.00314000710139       -1.93613533096710        0.76572179266319
C            6.45703319047247       -3.22002609338427        0.95126092856679
C            5.00542993366841       -1.17687913842224       -0.39440312241656
C            0.04937380722276       -1.45960166870451       -1.32599343728669
C           -4.43742237500108        2.97410038531235        0.45973675694857
C           -5.25719673292385        2.70019599024447        1.71753377931347
C           -4.10301710118257        4.45912629039624        0.35888851674787
H           -4.67041229839121        0.67580341183824       -1.30521897282924
H           -6.66044644355961       -0.29325395184027       -2.10131103663725
H           -6.64448676284669       -1.81640634099575       -3.02128812246578
H           -5.22725618872112       -0.74206425925409       -3.07407059989420
H           -4.86452851074161       -3.87932971475228        2.62150100174830
H           -4.93242994046711       -5.18458221463231        1.41262355797356
H           -3.38494948586701       -4.36981819538173        1.74636687135863
H           -3.27759607712314       -2.12314050950709        2.50066366596874
H           -2.59588379744175        0.20695050282270        2.39882115631180
H           -3.04162521785900        2.57289699667826       -1.66323611611802
H           -1.68786000895906        3.19089851593181       -0.71909120063863
H           -2.12009536205610        0.30320879417140       -1.59031017648831
H           -0.98995791306008        1.46367526371723       -2.28840202358075
H           -0.84801784814439        0.22009244005089        0.48620195532738
H            0.13917614087149        1.60922418749202       -0.02133662714422
H            2.03744561485770       -0.92185627050673        0.28991621130556
H            2.10334632961735        0.82103994651204       -0.01952244458853
H            2.75111109786769        0.35032727730619       -2.39351794928672
H            2.87067441643056       -1.36800519257908       -2.00000879317513
H            4.49141261315057        1.87872056960025       -1.73283230224197
H            6.74211008019252        2.22904484539132       -0.86444171242341
H            8.44386419256314        2.36040753585123        0.78371348111305
H            9.05942363031606        1.75108440973633       -0.77956079002016
H            9.88989144925540        1.32225773895563        0.73642702735740
H            7.22036429306450       -3.78873486578749        1.47892163066859
H            5.54715009776356       -3.18519845675896        1.55884909483067
H            6.24011301921053       -3.70556804113384       -0.00517830445573
H            4.50687526235916       -2.12677221198902       -0.28122324801627
H           -0.71378636412441       -1.38794080319141       -2.09943032232040
H           -0.39802107066983       -1.93337308878509       -0.44005759815834
H            0.84467300834966       -2.09934893192943       -1.69769977942978
H           -5.03440704312195        2.69210156071443       -0.41135229444664
H           -4.69716455279788        2.96326542715818        2.61283042835891
H           -5.53778285891277        1.65196397302986        1.78335527663685
H           -6.16621038946341        3.29583951919820        1.69947666153695
H           -3.51928407423053        4.79001279338818        1.21533492848133
H           -3.55123372855926        4.69107544050775       -0.54750826867130
H           -5.02637683656715        5.03295099285850        0.34128806532988
H           -1.52061211175383        3.45785922821213        3.11047886011534
