25
 energy: -42.154099916965 gnorm: 0.004931574766 xtb: 6.6.1 (8d0f1dd)
C            3.12051862263505        1.19777203616395        0.17540812256128
N            2.14790091811596        0.14066902109834        0.08802020644579
C            2.39963632514802       -1.13280890849888       -0.19168868512748
N            1.24093342313065       -1.81726004621439       -0.21301256847696
C            0.22235114211858       -0.94579235276080        0.06938501114170
C            0.80392605809730        0.28683725402592        0.27609039623502
C            0.08900820870897        1.56382469624382        0.61304228856883
O            0.41634056154710        2.63387285676383        0.12279729835508
N           -1.52904314224749        1.04069201683343       -0.18189775799235
C           -2.17611193948451        2.01055320048693       -0.69908021106638
C           -2.07176355349855       -0.26032682479478       -0.09327106709960
O           -3.24329793652656       -0.50303570898309       -0.16357312607699
N           -1.10923785050660       -1.24988612269021        0.06910486465142
C           -1.54026837068109       -2.63575518092423        0.12184729191474
H            3.51163504420489        1.27378747850861        1.19150193822183
H            3.94192286611048        1.00008020734667       -0.50931771642022
H            2.63916958355522        2.14192996392573       -0.08203020692585
H            3.36863826941065       -1.55416882960430       -0.37258493073046
H           -1.67756948542980        2.97221675867536       -0.71710133104639
H           -3.17060999704348        1.89487023405213       -1.10995529514048
H           -0.37095944119451        1.50733308322537        1.62384097249140
H           -1.05291699548886       -3.14844190910415        0.95061879224624
H           -1.33002041622071       -3.15037457179341       -0.81776684032279
H           -2.61760505725347       -2.64259237491556        0.28145094729832
H            1.14785467689199       -2.80575743546606       -0.40065677580474
