  25
        -42.13729827
 C          3.3523085256        1.4296114487       -0.0456960858
 N          2.4735698094        0.2903127983       -0.0010056578
 C          2.8246853402       -0.9883076271        0.0304640650
 N          1.7333078804       -1.7721892023        0.0556699593
 C          0.6238676437       -0.9651022601        0.0385388154
 C          1.1079005911        0.3497582342        0.0034102856
 C          0.1792972403        1.4598213697       -0.0081222033
 O          0.4887203643        2.6345556229       -0.0272343479
 N         -1.1319264177        1.0172933908        0.0074350952
 C         -2.1835953827        2.0137134839       -0.0018648969
 C         -1.5639254780       -0.3310063031        0.0332754150
 O         -2.7544843054       -0.5596673716        0.0376585815
 N         -0.6359097179       -1.3200765523        0.0513221000
 C         -3.9262966965       -3.4409259103       -0.1520076660
 H          4.0512439024        1.4036870142        0.7901706843
 H          3.9190058147        1.4346045649       -0.9775161196
 H          2.7494597666        2.3360818752        0.0104590918
 H          3.8361645113       -1.3480149250        0.0363589364
 H         -1.7223113165        2.9985733239       -0.0466984078
 H         -2.8333575291        1.8567073279       -0.8640522037
 H         -2.7910829264        1.9205185962        0.8998268988
 H         -3.9742922881       -4.0823964937        0.7075173368
 H         -4.2193327321       -3.8253024866       -1.1115475325
 H         -3.5972920168       -2.4179579549       -0.0535831263
 H          1.7171372620       -2.7820624242        0.0829219708
