25
 energy: 0.000000000000 xtb: 6.6.1 (8d0f1dd)
C            3.23720163006194        1.16630919979326        0.08434469647475
N            2.29877817382611        0.07527477071623        0.03981603040599
C            2.58028210190900       -1.21425402444508        0.03006176031096
N            1.43813958087363       -1.93419271955128        0.00098261760884
C            0.39035688448383       -1.05887472636071       -0.00790371836672
C            0.93510056364412        0.21347819449412        0.01709077491437
C            0.09450143893243        1.40504303904423       -0.00410947031874
O            0.49712751527797        2.54126714362870       -0.00342325688240
N           -1.25076640035757        1.06271879480407       -0.03085478223738
C           -2.21907211982101        2.15522099834493       -0.05001256985998
C           -1.81739487048744       -0.20012725993278       -0.04692818574614
O           -2.99983886758376       -0.37846417018721       -0.07008878229737
N           -0.92618586207120       -1.30210215599479       -0.03682761578324
C           -1.46982264913417       -2.64643102187190       -0.06029820460571
H            3.71247264356769        1.21471455160235        1.06488849150277
H            4.00791497605742        1.03430808813993       -0.67357694370751
H            2.69910007168542        2.09770118228144       -0.09130154882931
H            3.56654120610678       -1.63682992603973        0.04233140067262
H           -1.67107961066214        3.09322851271934       -0.02552706933167
H           -2.82428953597071        2.09428624779827       -0.95318082946668
H           -2.87644029173232        2.07745725625962        0.81450067533302
H           -1.17061996399332       -3.19584890659852        0.83242232437030
H           -1.14560257411436       -3.17511610292205       -0.95688275822323
H           -2.55549792440841       -2.55659984320617       -0.07459039797972
H            1.38130855184625       -2.94313852034425       -0.01389874181052
25
 energy: -3.970156556795 xtb: 6.6.1 (8d0f1dd)
C            3.23982097549129        1.18720605992701        0.08595491104377
N            2.32860139567697        0.08213191603808        0.03655871373327
C            2.62623706162637       -1.26248362452206        0.02943485486976
N            1.43343895505605       -1.93781441534316       -0.00106725487226
C            0.40439702954124       -1.04823551644316       -0.00900197452356
C            0.94335417537423        0.22604131659333        0.01426471620026
C            0.10039405785453        1.40166993832888       -0.00402013468265
O            0.48824208009613        2.57053585172764       -0.00221589218752
N           -1.26467050887008        1.05832683383526       -0.03001245731858
C           -2.23544061069149        2.14972347431563       -0.04860131603611
C           -1.82387756651849       -0.19401940709674       -0.04691144103788
O           -3.02015683495385       -0.38027241144084       -0.07004377717191
N           -0.92907865542050       -1.29054421999715       -0.03702229634278
C           -1.46684426962836       -2.63279900297403       -0.05987323147095
H            3.70079345631796        1.25633075429471        1.07414136298974
H            4.01649550486576        1.06143261284253       -0.66728753370551
H            2.68277538914803        2.10643489246989       -0.10465847930496
H            3.60939446541518       -1.79324784863247        0.04152897406920
H           -1.68680353844555        3.08850636412775       -0.02414243827431
H           -2.84379694545144        2.09357561202589       -0.95149317419128
H           -2.89575500478646        2.07637986618765        0.81556939469959
H           -1.16274515946791       -3.18231890100054        0.83286905876165
H           -1.13623688412728       -3.16272393014705       -0.95514206863015
H           -2.55276234408195       -2.54652076179183       -0.07522588433236
H            1.35643844391582       -2.93828685115321       -0.01656873613716
25
 energy: 2.815698561013 xtb: 6.6.1 (8d0f1dd)
C            3.23964072559265        1.20928638497357        0.08693285062216
N            2.36568224868415        0.07571431505309        0.02974189780296
C            2.67439690735615       -1.31827685995235        0.02777225410970
N            1.42612330404892       -1.93401130475734       -0.00403266098794
C            0.42014801840471       -1.03426668579207       -0.01084638921684
C            0.95943550803954        0.23847288991071        0.01053785255366
C            0.11232581278737        1.39476642605611       -0.00322605449034
O            0.46591751317930        2.58559455312196       -0.00024929650084
N           -1.27684552410509        1.05777259503349       -0.02823304517323
C           -2.25334511962014        2.14607141747089       -0.04593877524067
C           -1.82237303322531       -0.18506994573385       -0.04619960670324
O           -3.02323989992634       -0.38241509678392       -0.06947520953976
N           -0.92778196075225       -1.27241781374575       -0.03713962050823
C           -1.45860420940203       -2.61340671281275       -0.05917307904798
H            3.67696700929171        1.32389259302685        1.08540308941038
H            4.03537075294109        1.10676917123695       -0.65054243746293
H            2.65534754747629        2.11074509023360       -0.12924684643823
H            3.63231090818450       -2.00425067450976        0.03872175629337
H           -1.71208025382208        3.08951433451590       -0.02149393820743
H           -2.86723049628668        2.09001197654877       -0.94692463220288
H           -2.91842324852588        2.07202545786146        0.81636465031832
H           -1.15174037751266       -3.16219223400911        0.83433488226708
H           -1.12237304053910       -3.14458479802010       -0.95287964429189
H           -2.54495375846309       -2.53145756554506       -0.07640658068862
H            1.32753933413047       -2.92925891120924       -0.02076752052930
25
 energy: 9.706353624704 xtb: 6.6.1 (8d0f1dd)
C            3.23287925695976        1.22067827965792        0.08646145709880
N            2.38550173051144        0.06195042064530        0.02319191573701
C            2.69594254957167       -1.35377037638965        0.02542324302966
N            1.42527933333427       -1.93600816731146       -0.00647101727253
C            0.42915493870212       -1.03056153614957       -0.01244369600371
C            0.97250019621028        0.24089260083229        0.00807598434182
C            0.12400284684905        1.39558506452123       -0.00221159023220
O            0.45659714004252        2.58936327154278        0.00116528263711
N           -1.27735886103715        1.06431447130831       -0.02643366297760
C           -2.26133637387937        2.14700660896115       -0.04305670287427
C           -1.81698474132999       -0.17887973943118       -0.04531266693273
O           -3.01699597954369       -0.38234952833357       -0.06861553737546
N           -0.92175354966555       -1.26156721051195       -0.03714814635021
C           -1.45112761730520       -2.60134934811184       -0.05837934912393
H            3.64359758500173        1.37580406350900        1.09377376694638
H            4.05184017819984        1.14069788342035       -0.62954521281775
H            2.62870522850554        2.10544613857104       -0.15620943645357
H            3.63211596637618       -2.12899831455867        0.03433487128026
H           -1.73237086963194        3.09673913376709       -0.01854529642710
H           -2.87852407667373        2.08521715331388       -0.94227813817141
H           -2.92855053103426        2.06617168136933        0.81791503611934
H           -1.14486857849952       -3.14679780519082        0.83706951893425
H           -1.11239581152965       -3.13134922714459       -0.95148605080318
H           -2.53757363787296       -2.51868866074378       -0.07754070214617
H            1.31393834567488       -2.93051825537055       -0.02469997401550
25
 energy: 11.286461069768 xtb: 6.6.1 (8d0f1dd)
C            3.22668268417859        1.22341935573224        0.08585379880674
N            2.38954232180535        0.05525787928965        0.01944467012220
C            2.69907267735639       -1.36294290392640        0.02362430558589
N            1.42792038710537       -1.93804526387554       -0.00749439345730
C            0.43127792037177       -1.03169626646560       -0.01293047052531
C            0.97733015305727        0.23920344327805        0.00766518868604
C            0.12965433090722        1.39846878482280       -0.00169420058384
O            0.45639743845927        2.58890556602788        0.00145497021006
N           -1.27374494827627        1.06854030513873       -0.02542324455566
C           -2.26113747024985        2.14829581972485       -0.04147561033209
C           -1.81398143531929       -0.17693408045678       -0.04460829927155
O           -3.01255360579296       -0.38086503414899       -0.06800080467800
N           -0.91791447631363       -1.25881356368342       -0.03690284946764
C           -1.44872629014465       -2.59842302196837       -0.05784613220357
H            3.61951204074518        1.39273779593298        1.09704611308606
H            4.05770342447299        1.14996373876713       -0.61581166762895
H            2.61819578624713        2.10000250812935       -0.17216984249646
H            3.62853377140513       -2.15845202095995        0.03087567354840
H           -1.73885133886546        3.10118060495731       -0.01692793075838
H           -2.87891110606616        2.08293040105818       -0.94020897093004
H           -2.92818550473922        2.06330899157141        0.81943518062191
H           -1.14395021138933       -3.14196630973121        0.83872202287355
H           -1.10946847646024       -3.12771830726960       -0.95057808902178
H           -2.53515773628600       -2.51455812374234       -0.07822438894695
H            1.31297433172760       -2.93277169603032       -0.02679113253605
25
 energy: 11.278741963669 xtb: 6.6.1 (8d0f1dd)
C            3.22332214316042        1.22397620874614        0.08556637422508
N            2.39041208628702        0.05228055923340        0.01634056184845
C            2.69838527147052       -1.36399962661492        0.02205159361483
N            1.42998271315838       -1.93847336097806       -0.00806896754561
C            0.43125599357530       -1.03279728763808       -0.01302889576065
C            0.97958634159175        0.23751660568924        0.00782805688086
C            0.13273527992949        1.40033950655326       -0.00160205139675
O            0.45668747508670        2.58874767140176        0.00132358301542
N           -1.27046204579896        1.06981703349111       -0.02468611047537
C           -2.25922046842763        2.14840830556679       -0.04034001166887
C           -1.81278008772424       -0.17663052192350       -0.04397128073241
O           -3.01046553156061       -0.37947564335218       -0.06739568641334
N           -0.91618447181827       -1.25824711381165       -0.03650777590673
C           -1.44841096784854       -2.59812299106281       -0.05749801061678
H            3.60222569436620        1.39957106876520        1.09934744804755
H            4.06194599001559        1.15082772861961       -0.60534501904008
H            2.61549576766354        2.09593026290972       -0.18394686560421
H            3.62551896382796       -2.16188046244063        0.02816296782901
H           -1.74001796027535        3.10264414240272       -0.01578695655354
H           -2.87707912575144        2.08178969928718       -0.93893526335266
H           -2.92582116394160        2.06182209853658        0.82078591399399
H           -1.14470068137449       -3.14084251750304        0.83958967559578
H           -1.10878247219445       -3.12712856907052       -0.94989787468926
H           -2.53480283271771       -2.51372377627557       -0.07874195040110
H            1.31338875723667       -2.93332041835972       -0.02820955874629
25
 energy: 10.946794509295 xtb: 6.6.1 (8d0f1dd)
C            3.22279855400325        1.22390006524779        0.08558144995837
N            2.39079082310359        0.05162473753960        0.01403660898425
C            2.69761762129708       -1.36278570358474        0.02098179300609
N            1.43044053767430       -1.93808055676995       -0.00831586258843
C            0.43073376534630       -1.03301422298671       -0.01294401625626
C            0.98030668581068        0.23688683433345        0.00803948166103
C            0.13384844390788        1.40058442731653       -0.00172225710598
O            0.45657100283412        2.58906001919113        0.00100274223477
N           -1.26913166450879        1.06923713247531       -0.02421533552885
C           -2.25791356991850        2.14792642716957       -0.03968618589338
C           -1.81281689070494       -0.17691703056668       -0.04353258873767
O           -3.01037299849086       -0.37889722685718       -0.06694695413364
N           -0.91613253034558       -1.25842855759938       -0.03609919539893
C           -1.44878240258883       -2.59855472776181       -0.05735338249348
H            3.59377792616764        1.40230058417837        1.10103986323229
H            4.06556406242008        1.14897090871606       -0.59926406576029
H            2.61652119136820        2.09412145356210       -0.19066192703110
H            3.62412678117278       -2.15841448711098        0.02663641701810
H           -1.73906167664467        3.10230050132446       -0.01512657971843
H           -2.87582335494829        2.08148349265600       -0.93825084914688
H           -2.92431618684010        2.06135469197575        0.82158131634174
H           -1.14544948227074       -3.14126470896498        0.83980981121755
H           -1.10886506877598       -3.12748425425935       -0.94963553494117
H           -2.53511519484327       -2.51402042984455       -0.07899277274276
H            1.31289829371089       -2.93286076720779       -0.02892808002962
25
 energy: 10.711566069653 xtb: 6.6.1 (8d0f1dd)
C            3.22305719372439        1.22379967400844        0.08568246376278
N            2.39120887573423        0.05154426797764        0.01201437747862
C            2.69733408066535       -1.36182186531178        0.02015863599277
N            1.43027209209577       -1.93773104930149       -0.00838584154239
C            0.43041930953499       -1.03284661895334       -0.01274191981107
C            0.98048468399824        0.23687108727323        0.00825097488889
C            0.13428228292666        1.40028329106350       -0.00185377745917
O            0.45640666286692        2.58930671046286        0.00060501145256
N           -1.26887577283238        1.06849100688068       -0.02384258544170
C           -2.25735653852622        2.14755725277214       -0.03928418049923
C           -1.81305837810299       -0.17714423475344       -0.04319322533943
O           -3.01071794320690       -0.37882299922315       -0.06664345875338
N           -0.91642756472665       -1.25866881469286       -0.03563852715959
C           -1.44900390124946       -2.59890548969903       -0.05726440721043
H            3.58907087679547        1.40396080853319        1.10228658084366
H            4.06861124331734        1.14719717280034       -0.59520284483179
H            2.61819245293599        2.09343016599772       -0.19479875909574
H            3.62342269947840       -2.15562751599520        0.02558073227088
H           -1.73806716337378        3.10173734525138       -0.01471410971249
H           -2.87530413247528        2.08146146619393       -0.93784571470737
H           -2.92372004842044        2.06126194195264        0.82203201578088
H           -1.14582585246687       -3.14186639642661        0.83983388014693
H           -1.10890075477016       -3.12776741791396       -0.94956331070269
H           -2.53529317059420       -2.51429076615612       -0.07910096663271
H            1.31200343460781       -2.93238042056865       -0.02933714757152
25
 energy: 10.608420786331 xtb: 6.6.1 (8d0f1dd)
C            3.22347002699031        1.22367774589476        0.08580657233780
N            2.39155221604515        0.05161133890244        0.01015573673077
C            2.69738738007309       -1.36146454033270        0.01959346114277
N            1.42994168487663       -1.93764303640304       -0.00826707708298
C            0.43043778406423       -1.03256781896447       -0.01242670666758
C            0.98033335362289        0.23722205448120        0.00844226954378
C            0.13435627159686        1.39993480277938       -0.00201274273929
O            0.45634189872762        2.58936963695140        0.00016182446223
N           -1.26928307786196        1.06810552813827       -0.02355748313422
C           -2.25744587257829        2.14749028221761       -0.03908431069976
C           -1.81318322825749       -0.17718372714724       -0.04296033037196
O           -3.01096371136254       -0.37913311799734       -0.06652940030958
N           -0.91661531880518       -1.25885654952257       -0.03510088304112
C           -1.44893145339435       -2.59903776135013       -0.05717883128425
H            3.58673269787062        1.40469764307970        1.10308279002295
H            4.07073327414028        1.14610842162207       -0.59272214602714
H            2.61969046675203        2.09337826411349       -0.19683688585470
H            3.62304084965292       -2.15443623251717        0.02483160557632
H           -1.73754308572466        3.10139012836295       -0.01448899704991
H           -2.87537730739524        2.08162013804771       -0.93766924095748
H           -2.92386216974447        2.06139353400354        0.82220279427192
H           -1.14581412549048       -3.14236010779741        0.83977140937623
H           -1.10879565868873       -3.12776690436527       -0.94961016933975
H           -2.53521627087862       -2.51435685505457       -0.07906240958216
H            1.31122804370562       -2.93216426497057       -0.02950695317556
