25
 energy: 0.000000000000 xtb: 6.6.1 (8d0f1dd)
C            3.23720132972391        1.16630909158653        0.08434468864950
N            2.29877796055224        0.07527476373246        0.03981602671198
C            2.58028186251803       -1.21425391179017        0.03006175752192
N            1.43813944744728       -1.93419254010258        0.00098261751768
C            0.39035684826767       -1.05887462812143       -0.00790371763344
C            0.93510047688824        0.21347817468824        0.01709077332874
C            0.09450143016486        1.40504290868848       -0.00410946993748
O            0.49712746915594        2.54126690785742       -0.00342325656480
N           -1.25076628431515        1.06271869620815       -0.03085477937476
C           -2.21907191394203        2.15522079838987       -0.05001256521996
C           -1.81739470187490       -0.20012724136556       -0.04692818139228
O           -2.99983858926755       -0.37846413507442       -0.07008877579474
N           -0.92618577614240       -1.30210203518959       -0.03682761236648
C           -1.46982251276835       -2.64643077634382       -0.06029819901142
H            3.71247229913541        1.21471443890471        1.06488839270555
H            4.00791460421487        1.03430799217987       -0.67357688121503
H            2.69909982127087        2.09770098766290       -0.09130154035862
H            3.56654087521359       -1.63682977417947        0.04233139674524
H           -1.67107945562430        3.09322822573871       -0.02552706696334
H           -2.82428927394145        2.09428605349656       -0.95318074103337
H           -2.87644002486466        2.07745706351925        0.81450059976605
H           -1.17061985538665       -3.19584861009707        0.83242224714061
H           -1.14560246782873       -3.17511580834413       -0.95688266944647
H           -2.55549768731684       -2.55659960601237       -0.07459039105944
H            1.38130842369251       -2.94313824728853       -0.01389874052104
25
 energy: -3.231046976285 xtb: 6.6.1 (8d0f1dd)
C            3.23867909361931        1.18910756304673        0.08580289636820
N            2.33135660660449        0.08060857064810        0.03647207744697
C            2.63118435157776       -1.26665541289590        0.02931103868476
N            1.43487560926151       -1.93662029722944       -0.00126697319602
C            0.40541465880092       -1.04681999047054       -0.00899601411165
C            0.94479036501435        0.22688767951124        0.01430651092696
C            0.09951004475795        1.40275249047647       -0.00376717148227
O            0.48587380821393        2.57203813194239       -0.00189117968576
N           -1.26577947825192        1.05958499932420       -0.02986704576203
C           -2.23768990060470        2.15056453469074       -0.04850415783497
C           -1.82415771975661       -0.19307539418332       -0.04683752975163
O           -3.02031652746907       -0.37994405072190       -0.07003119559604
N           -0.92853405416939       -1.28913523723880       -0.03696372644290
C           -1.46632214531211       -2.63157879831060       -0.05983205132394
H            3.69751780951334        1.26045313132668        1.07466612341724
H            4.01618748119208        1.06375892060405       -0.66617376488985
H            2.68106223819633        2.10821472967389       -0.10656309076789
H            3.61682879091263       -1.81693845401647        0.04130279483588
H           -1.69064829718703        3.09032673417107       -0.02405421809920
H           -2.84629373365687        2.09400477488296       -0.95126837147089
H           -2.89825926410115        2.07677011787964        0.81549722694384
H           -1.16224548424794       -3.18099975944234        0.83295564761325
H           -1.13554535898414       -3.16147869807958       -0.95503080870911
H           -2.55236868400044       -2.54627095976827       -0.07531628937789
H            1.35709409504923       -2.93652653707700       -0.01691681554050
25
 energy: 7.309284227352 xtb: 6.6.1 (8d0f1dd)
C            3.23654788704824        1.21467610881219        0.08661610899232
N            2.37230067896533        0.07277942858718        0.02954317225070
C            2.68816819911408       -1.32825865548067        0.02727938884486
N            1.42990205664702       -1.93053873156783       -0.00447332580314
C            0.42268692544457       -1.03094022896932       -0.01066776256207
C            0.96252142111929        0.24088895674471        0.01101894267868
C            0.11042633995636        1.39736217140348       -0.00244787403981
O            0.45931629861926        2.58972505037698        0.00058819924762
N           -1.27978841039804        1.06071129955146       -0.02787084174089
C           -2.25873912850062        2.14824243185962       -0.04581172266833
C           -1.82319132947861       -0.18286898810896       -0.04598217459727
O           -3.02398296126260       -0.38167698871064       -0.06950687707258
N           -0.92685961207310       -1.26912700833884       -0.03691239220446
C           -1.45768197222000       -2.61056251180740       -0.05907444691742
H            3.66914208655580        1.33412331232076        1.08662383249846
H            4.03417192337317        1.11271495851707       -0.64805743851164
H            2.65101552145472        2.11568236102388       -0.13361145970325
H            3.65096939082767       -2.06572041812708        0.03800611925306
H           -1.72113163707493        3.09391728991920       -0.02140243001330
H           -2.87315013156828        2.09126348529740       -0.94661004186954
H           -2.92445828491690        2.07327582037332        0.81614884725209
H           -1.15086253029243       -3.15924779350760        0.83449469193366
H           -1.12104462723710       -3.14172537224354       -0.95262359040547
H           -2.54434289617295       -2.53093843058751       -0.07661304129243
H            1.33027909704249       -2.92472875859381       -0.02161997135530
25
 energy: 19.276550628201 xtb: 6.6.1 (8d0f1dd)
C            3.22769342944427        1.22962022864945        0.08595896758595
N            2.39578737386388        0.05726946743621        0.02251047869761
C            2.71801645407482       -1.37191326508118        0.02432836143218
N            1.43118122700116       -1.93203474399427       -0.00736599882668
C            0.43381604736383       -1.02602331213731       -0.01214932322195
C            0.97729895325820        0.24464060469108        0.00894910681048
C            0.12208490914670        1.39958354384497       -0.00081569473731
O            0.44638768190977        2.59558040409971        0.00270076705358
N           -1.28187314228382        1.06932906985166       -0.02573658966072
C           -2.27035734886929        2.15031123662706       -0.04276231153534
C           -1.81783482920912       -0.17515764497108       -0.04491518473370
O           -3.01775013792549       -0.38118443871529       -0.06861995986598
N           -0.91984195622111       -1.25593946919316       -0.03672076791708
C           -1.44957826548562       -2.59588274234226       -0.05814980262747
H            3.62964524115670        1.39540734845581        1.09590132637218
H            4.05134297595753        1.15334198945917       -0.62453236292147
H            2.61995301049523        2.11190452171146       -0.16444867236817
H            3.66415892562258       -2.23102016991606        0.03314808315252
H           -1.74772783058191        3.10370123694515       -0.01833236056821
H           -2.88862065582105        2.08696143264523       -0.94157887196767
H           -2.93888962128280        2.06798017360456        0.81750363201367
H           -1.14343934060080       -3.14087393986704        0.83753337381845
H           -1.11010118744829       -3.12559414969373       -0.95105453021796
H           -2.53642131588671       -2.51582469663608       -0.07787590242013
H            1.31728370729381       -2.92515389673003       -0.02644185115215
25
 energy: 23.655984737080 xtb: 6.6.1 (8d0f1dd)
C            3.22038241537660        1.23419686423648        0.08521545444987
N            2.40004561367287        0.05158358164359        0.01863670451841
C            2.72364742539459       -1.38360346737541        0.02205300257867
N            1.43522374633713       -1.93356079691752       -0.00856876487927
C            0.43664820954066       -1.02655706595302       -0.01239871261011
C            0.98194079150232        0.24407355569792        0.00912896708128
C            0.12695730267976        1.40390986224823        0.00009340188278
O            0.44420506058304        2.59614859936637        0.00332913990382
N           -1.27923222120182        1.07475023838500       -0.02458488437855
C           -2.27192286282262        2.15225689755013       -0.04125343753513
C           -1.81510157870684       -0.17269113661225       -0.04409577957496
O           -3.01336141903009       -0.37968866766441       -0.06804495181921
N           -0.91543478374657       -1.25220092865648       -0.03627679685894
C           -1.44700678807811       -2.59195807226141       -0.05752693174883
H            3.60263775054416        1.41453160748183        1.09872418277825
H            4.05654998923196        1.16533139597000       -0.60980466131470
H            2.60884549833760        2.10768712911825       -0.18153503602110
H            3.67155195530655       -2.28141498879913        0.02980262856870
H           -1.75688434352157        3.10914852289903       -0.01682973601444
H           -2.89070765465978        2.08490376937833       -0.93962904249086
H           -2.94037652817632        2.06550044761209        0.81889476213824
H           -1.14257120379738       -3.13498021008038        0.83930162253735
H           -1.10704895278669       -3.12086469400533       -0.95004030499871
H           -2.53387205520939       -2.51067514341050       -0.07857224246347
H            1.31709893820243       -2.92679851110736       -0.02898467153457
25
 energy: 25.490368409661 xtb: 6.6.1 (8d0f1dd)
C            3.21716476712065        1.23572046819531        0.08494336961144
N            2.39959562046505        0.05093035312246        0.01596879974601
C            2.72272669208406       -1.38403028893369        0.02020162984290
N            1.43814702973206       -1.93303008757518       -0.00909527247588
C            0.43637946332631       -1.02713343696018       -0.01219819119897
C            0.98311583971476        0.24341146646231        0.01002618855699
C            0.12839051039070        1.40708144704399        0.00039689846691
O            0.44266276899438        2.59675890755623        0.00346043537259
N           -1.27700902470197        1.07647202640422       -0.02390784128921
C           -2.27119476075123        2.15268793443791       -0.04039205067616
C           -1.81470345573084       -0.17251095149492       -0.04350011254091
O           -3.01183829581763       -0.37858435722838       -0.06758230777574
N           -0.91375488294914       -1.25138262239396       -0.03576447741387
C           -1.44694795868634       -2.59156790279088       -0.05722761035998
H            3.58673038684513        1.42030618899422        1.09990884540626
H            4.05939647187952        1.16662423599302       -0.60040232391097
H            2.60784548422930        2.10529278154375       -0.19203618769966
H            3.67943584781212       -2.29734501874277        0.02796218078242
H           -1.75897036183596        3.11066390025812       -0.01599795707830
H           -2.88987610688406        2.08420305713540       -0.93872929769803
H           -2.93920097812478        2.06463789551681        0.81996405617457
H           -1.14353202235942       -3.13388826173871        0.83997146533167
H           -1.10680628733518       -3.12003639784869       -0.94950884602654
H           -2.53381146016939       -2.50986028054912       -0.07898744893077
H            1.31826901772435       -2.92639226766324       -0.03044003202220
25
 energy: 26.931028873063 xtb: 6.6.1 (8d0f1dd)
C            3.21631830551526        1.23645337049254        0.08498249133095
N            2.39827844922825        0.05208142424416        0.01337935336224
C            2.72012081764747       -1.38071415232866        0.01822480725261
N            1.43975824383865       -1.93162393440658       -0.00940033063357
C            0.43499351007431       -1.02718799944855       -0.01178928083433
C            0.98311147372114        0.24305503275301        0.01118400951329
C            0.12840775559003        1.40896661061742        0.00047359465138
O            0.44112386363040        2.59776236302503        0.00339961022091
N           -1.27573704055742        1.07625401468684       -0.02336633669527
C           -2.27028414246953        2.15239199962272       -0.03977308132964
C           -1.81559291202366       -0.17305615148567       -0.04300567442361
O           -3.01217699364446       -0.37772779564849       -0.06717792693884
N           -0.91379430330662       -1.25146063753944       -0.03513775269775
C           -1.44785002173886       -2.59221503344144       -0.05710419002935
H            3.57654444856736        1.42324949915261        1.10121001332466
H            4.06263409059758        1.16433069869825       -0.59343055954215
H            2.61000736378308        2.10418144029486       -0.19996360524406
H            3.69055159775915       -2.30484961921016        0.02703587568450
H           -1.75870619845678        3.11057497754851       -0.01538544441992
H           -2.88890821687155        2.08415992856013       -0.93811889629618
H           -2.93803239767755        2.06449516561256        0.82074797943465
H           -1.14478232860105       -3.13446865526657        0.84007153300930
H           -1.10749857473499       -3.12027321308054       -0.94937448939590
H           -2.53465025994451       -2.51038498668459       -0.07918051611411
H            1.31837777504679       -2.92496555802394       -0.03146727099520
25
 energy: 28.604335291998 xtb: 6.6.1 (8d0f1dd)
C            3.21665840407501        1.23704157091699        0.08517782239701
N            2.39708258198979        0.05389623113893        0.01109476626910
C            2.71750947543477       -1.37644499778832        0.01610143303506
N            1.44001685839215       -1.93018741580645       -0.00947937206752
C            0.43351021782460       -1.02659756415057       -0.01112880931952
C            0.98231978240214        0.24339953675172        0.01250874566727
C            0.12746766843293        1.40962318940702        0.00058378980308
O            0.43991074087361        2.59882316178865        0.00321837390176
N           -1.27591805827968        1.07535305227870       -0.02298135273372
C           -2.27021133165903        2.15209257135782       -0.03957636321710
C           -1.81702266949197       -0.17351228459725       -0.04268445272362
O           -3.01358131621482       -0.37728868994697       -0.06706754981207
N           -0.91488228139529       -1.25173765198166       -0.03437893361023
C           -1.44879823076861       -2.59293016328753       -0.05703528733475
H            3.57220835914893        1.42435475228766        1.10207231102188
H            4.06487668692550        1.16152294172427       -0.58979061308889
H            2.61289175909051        2.10482523931902       -0.20369514473477
H            3.70482630011992       -2.31194446103508        0.02706507800744
H           -1.75798776842893        3.11003412735020       -0.01517030773920
H           -2.88877311741132        2.08452952791917       -0.93799137975999
H           -2.93797479631313        2.06488286044858        0.82097341614879
H           -1.14556326565810       -3.13553745761504        0.83988172174698
H           -1.10823848371146       -3.12062020420264       -0.94948582328355
H           -2.53552486691997       -2.51121715380798       -0.07912564190206
H            1.31741165651493       -2.92333192972518       -0.03205251447672
25
 energy: 31.402672679675 xtb: 6.6.1 (8d0f1dd)
C            3.21719621449060        1.23801685921930        0.08546147321506
N            2.39598330631061        0.05625412150755        0.00901156744038
C            2.71507487323322       -1.37183537632522        0.01323840032441
N            1.43940108841750       -1.92878660336561       -0.00943071685574
C            0.43224308005371       -1.02530928383305       -0.01012998678964
C            0.98065757690071        0.24478432573417        0.01407630901218
C            0.12558751190191        1.40978760832346        0.00080492754589
O            0.43870950078565        2.60002115224739        0.00300393478342
N           -1.27768735830540        1.07470120097004       -0.02275200351101
C           -2.27143466752085        2.15227702995987       -0.03981636225243
C           -1.81867332791091       -0.17347343194391       -0.04256874045852
O           -3.01549834915687       -0.37728812387609       -0.06737284863888
N           -0.91651377642882       -1.25183943870079       -0.03338936773531
C           -1.44947032672993       -2.59327673013134       -0.05690246321435
H            3.57239410827003        1.42409267014521        1.10244075828989
H            4.06522166256062        1.15979332943694       -0.58937228227457
H            2.61508861920750        2.10728443909562       -0.20332353978782
H            3.72549746124448       -2.32626898087052        0.02846612664458
H           -1.75785624232826        3.10970314196175       -0.01539145370936
H           -2.88980857761870        2.08530772556310       -0.93838882845913
H           -2.93937363653705        2.06582184801522        0.82065441499582
H           -1.14577051523445       -3.13650591370330        0.83960736285651
H           -1.10873002773346       -3.12061414986522       -0.94966572734406
H           -2.53617597240924       -2.51202155425528       -0.07883663764125
H            1.31615207950991       -2.92159707656528       -0.03239040424151
25
 energy: 39.297644504725 xtb: 6.6.1 (8d0f1dd)
C            3.21694331073600        1.24129289839748        0.08596290895417
N            2.39397597750368        0.06135569909731        0.00561379488726
C            2.71120858952898       -1.36385220530972        0.00542578246646
N            1.43820771025807       -1.92575498608487       -0.00962984032376
C            0.43042980143844       -1.02212045779797       -0.00797114205966
C            0.97658897901424        0.24892851039860        0.01714974976994
C            0.12119508610660        1.41100228625058        0.00166842545730
O            0.43537091369708        2.60288715101745        0.00291080130973
N           -1.28258649295641        1.07506481017536       -0.02250174100934
C           -2.27550215992687        2.15363834741996       -0.04074425310585
C           -1.82157325392173       -0.17244751385735       -0.04255882346049
O           -3.01876021926420       -0.37773171842629       -0.06847709786806
N           -0.91931904740193       -1.25123714675823       -0.03128555154536
C           -1.45008652984539       -2.59294645226188       -0.05640636657041
H            3.57547775931355        1.42328908713658        1.10259021198048
H            4.06268508362540        1.16051471709672       -0.59177074892084
H            2.61628064487153        2.11380929286074       -0.19884229304227
H            3.77455851523362       -2.37394375245852        0.03387376192770
H           -1.75973383389797        3.11016737056547       -0.01633462280914
H           -2.89329062742722        2.08707009150244       -0.93969552233480
H           -2.94374056249308        2.06808588490516        0.81953146388185
H           -1.14556301671796       -3.13723092384165        0.83940443084082
H           -1.10899123651559       -3.11966756881862       -0.94971120405041
H           -2.53689751002377       -2.51312292813630       -0.07812536185565
H            1.31533642403740       -2.91802170432840       -0.03304285032510
25
 energy: 55.962190134571 xtb: 6.6.1 (8d0f1dd)
C            3.21336060521532        1.25585152164335        0.08789407887161
N            2.38482117995655        0.08267547082202       -0.00877506457402
C            2.69640669325375       -1.33260602780040       -0.04293818029826
N            1.43484159548480       -1.91262738685775       -0.01457493596839
C            0.42356462898594       -1.00965544304864        0.00010572729336
C            0.95975271571521        0.26597264794822        0.02931183503545
C            0.10362956470904        1.41818902776042        0.00879407550788
O            0.42078887974134        2.61471377252688        0.00463108913530
N           -1.30158007218876        1.07861058379840       -0.02130875362048
C           -2.29180615853247        2.15969046317039       -0.04517972998519
C           -1.83227979603481       -0.16789431353762       -0.04223860780570
O           -3.03017556707179       -0.37935270071395       -0.07303277557683
N           -0.92918633619194       -1.24810624505977       -0.02227514996580
C           -1.45207132164197       -2.59091986550401       -0.05351707556585
H            3.58764355610143        1.41925283324933        1.10259413755440
H            4.04881019773298        1.16861301152849       -0.60327601348715
H            2.61708103485293        2.14022597005519       -0.17868041748408
H            3.97221762500568       -2.58292872536847        0.07089570606716
H           -1.76907902456031        3.11327979386980       -0.02095398311428
H           -2.90683974497209        2.09351572287351       -0.94577290431093
H           -2.96108879577136        2.07706330457532        0.81431576932002
H           -1.14486845046218       -3.13855607617071        0.83999267421205
H           -1.10940022545538       -3.11535105021222       -0.94856757281811
H           -2.53939870183202       -2.51699409426762       -0.07488597179268
H            1.31707022293255       -2.90363340653616       -0.03552404443497
25
 energy: 52.990233779721 xtb: 6.6.1 (8d0f1dd)
C            3.20080412804039        1.27215469010430        0.08890337816403
N            2.34142710780673        0.12424746003702       -0.01773160257440
C            2.62755435131960       -1.23576272915166       -0.11583215347821
N            1.42926031282465       -1.87952371414771       -0.01691820715176
C            0.40264166561983       -0.98714133453164        0.01161472055926
C            0.92455745928497        0.29095347271771        0.04894849547195
C            0.07394329503328        1.43446850585012        0.01496389232616
O            0.40961629702411        2.62363056344430        0.00501355503697
N           -1.31863064882493        1.08473927920469       -0.02262643362022
C           -2.30541409357597        2.16567586800227       -0.04767772732883
C           -1.84397201242714       -0.16466457194341       -0.04456121258251
O           -3.04100073687527       -0.37884871861326       -0.07612202580048
N           -0.94390978805820       -1.24601090890023       -0.01555519642925
C           -1.45379839771365       -2.59165450439912       -0.05242728685515
H            3.58656965077522        1.41561441330867        1.10261896025491
H            4.03318512383247        1.16090068703744       -0.60674823012405
H            2.61891673066648        2.16903686964960       -0.17330450315753
H            4.29124088781231       -2.90936603836018        0.12265515167777
H           -1.77511539014472        3.11588868906575       -0.02288613790556
H           -2.91616613822294        2.09657022270402       -0.94917794650236
H           -2.97042931106681        2.07992420058007        0.81331023869901
H           -1.14302092424367       -3.13960836939187        0.84006263964618
H           -1.10812879313174       -3.11433047702694       -0.94814800991939
H           -2.54106743329198       -2.52288720979117       -0.07374729344845
H            1.33315096250948       -2.87497755670477       -0.03759315276351
25
 energy: 53.955461499567 xtb: 6.6.1 (8d0f1dd)
C            3.17709948040076        1.27843385612811        0.07698429334692
N            2.28002564230798        0.15021837701340        0.00787187706931
C            2.55970894958863       -1.12505351534702       -0.08262010310335
N            1.43349458459381       -1.82800812110601       -0.01921302546841
C            0.37526327435513       -0.96561588352296        0.01420752359300
C            0.89705955123371        0.30242537605679        0.04973922076886
C            0.04575931303759        1.45943044666245        0.00434426865730
O            0.39048226584659        2.61637837702353        0.00522710768919
N           -1.31557103389252        1.09856609214036       -0.02468245015641
C           -2.30800470760172        2.16852382912812       -0.04398172823022
C           -1.84902493115173       -0.16846668656398       -0.04321832202992
O           -3.04019404254431       -0.37366694845819       -0.07305070036284
N           -0.94968531105925       -1.23863569610519       -0.02202797714666
C           -1.45397699614762       -2.59152592882301       -0.05581574233381
H            3.55958931674254        1.41172509832564        1.08851128694168
H            4.02042785954995        1.14780130253704       -0.59939191201030
H            2.62368743385715        2.17812807088481       -0.19369941018840
H            4.55109949991197       -3.20938114145333        0.12409792530069
H           -1.78354056323246        3.12000398884271       -0.01939019198229
H           -2.91667718712232        2.09400976194029       -0.94467331671601
H           -2.96795241597425        2.07576215693012        0.81862579812762
H           -1.14128428790877       -3.13482489935963        0.83714000390176
H           -1.10549979678508       -3.11262451380453       -0.94931334461919
H           -2.54117255418550       -2.52741997104749       -0.07730684442937
H            1.37110096115218       -2.83715463927799       -0.05133032442458
25
 energy: 54.866449329150 xtb: 6.6.1 (8d0f1dd)
C            3.16859376456524        1.31287824054042        0.07883112917473
N            2.29487411678889        0.17464177064482       -0.00857576780917
C            2.62781791849282       -1.14608007437588       -0.08494100921317
N            1.43297743670521       -1.81211876848081       -0.02471316895009
C            0.37126814528410       -0.95077451725556        0.01924168172537
C            0.88135710940264        0.32939562088695        0.05793496194343
C            0.02401888213346        1.47047683884348        0.01474664129644
O            0.34286769760963        2.65313685008753        0.00523498341335
N           -1.35141862250037        1.10327920307362       -0.02067633454860
C           -2.33719722639393        2.17923566031213       -0.04905724052514
C           -1.87167343329149       -0.16095046062715       -0.04067967419898
O           -3.06598600356569       -0.37217867231994       -0.07992476487617
N           -0.96802179615830       -1.22732453830460       -0.01338918107892
C           -1.46076664266809       -2.58533667999831       -0.05332040776552
H            3.56227164158587        1.42301366660457        1.08979883624810
H            3.99450676215582        1.15882472719195       -0.60904048891831
H            2.62701262823659        2.22809887899330       -0.17728357902463
H            4.81460018735682       -3.53467009736753        0.12828661125487
H           -1.80208948559563        3.12654978559248       -0.02427661301418
H           -2.94304079938640        2.10908267352991       -0.95331560403217
H           -2.99895341368685        2.09303397021228        0.81351450066159
H           -1.14269045422618       -3.13329474778759        0.83623154399220
H           -1.10660861339048       -3.10378530759948       -0.94799539147270
H           -2.54935797888446       -2.53685773519850       -0.07583018395374
H            1.36785248440326       -2.80924749845407       -0.05376756813406
25
 energy: 53.423510589420 xtb: 6.6.1 (8d0f1dd)
C            3.15431709478187        1.31569664544340        0.07801637300136
N            2.25019564079328        0.19758529755103        0.02137519569863
C            2.59750144020764       -1.08928890003754       -0.04499378390935
N            1.42842682633149       -1.78719750103526       -0.01767549793682
C            0.35634757685001       -0.94437573208898        0.00601054288845
C            0.86339591369634        0.33497905944613        0.04279325604792
C            0.01289493064901        1.48461470036801        0.00758465613517
O            0.34441050153196        2.65005797958201        0.00313027846382
N           -1.34301126883307        1.10947059699593       -0.02567442434212
C           -2.33127099811333        2.17704363899167       -0.04478137788092
C           -1.86955080256431       -0.16559823310146       -0.04653522241746
O           -3.06177599670198       -0.36746799026507       -0.07387150022826
N           -0.96928807908420       -1.22639739817664       -0.03013667893435
C           -1.46032751529114       -2.58746653359965       -0.05746327236439
H            3.55721753618743        1.42415037674546        1.08699279932867
H            3.98226140679105        1.14752067122293       -0.60758850944786
H            2.62224985821079        2.22718257299484       -0.18760306170893
H            4.90380784302015       -3.65792096783515        0.09635975805207
H           -1.80107584948632        3.12606890799425       -0.01916037637855
H           -2.93636017299289        2.10365623462386       -0.94781255499200
H           -2.98677761951512        2.08336055350503        0.82056190559193
H           -1.14013250765303       -3.12658104991315        0.83592121071144
H           -1.10565538430581       -3.10856489772083       -0.94892741998567
H           -2.54794059557054       -2.53752258930720       -0.07899839265081
H            1.39235452603322       -2.79397665363959       -0.04048999054744
25
 energy: 53.282693802240 xtb: 6.6.1 (8d0f1dd)
C            3.15448039836920        1.31737237437470        0.07953413804803
N            2.24290041770059        0.20442302249930        0.02885245460851
C            2.59967955427749       -1.08450385783750       -0.02240948906543
N            1.42837064723274       -1.78558891403015       -0.01766031989459
C            0.35770794534818       -0.94621422031202       -0.00093858647673
C            0.86251222327239        0.33533176349142        0.03342150795722
C            0.01075752851087        1.48625078164710        0.00725330044357
O            0.34502926220235        2.65154177034471        0.00393633378491
N           -1.34283696980872        1.11015796137219       -0.02580417966082
C           -2.33324628203141        2.17633406104413       -0.04534241850034
C           -1.86917782216128       -0.16737480485497       -0.04444930214346
O           -3.06190815295368       -0.36691724595318       -0.07064484469316
N           -0.96777086737423       -1.22681018944507       -0.03435380057047
C           -1.46068739517573       -2.58753298322621       -0.05809949185105
H            3.56425109716362        1.42313631577914        1.08615603365989
H            3.97863120303665        1.14653797055042       -0.61034925961235
H            2.62625418849514        2.23068953710939       -0.18313479121575
H            4.90376818280636       -3.67884236898973        0.07941371050084
H           -1.80426075744209        3.12615250953768       -0.02075062420651
H           -2.93890797668958        2.10377118788701       -0.94803930345829
H           -2.98970176448895        2.08536632155949        0.81947411840921
H           -1.14015458615216       -3.12538813314308        0.83571241681214
H           -1.10645330301621       -3.10879238992210       -0.94920087768824
H           -2.54823647941368       -2.53685615130755       -0.07854300276805
H            1.40121401326468       -2.79321552943114       -0.03699981022448
25
 energy: 53.210699827010 xtb: 6.6.1 (8d0f1dd)
C            3.15525981149582        1.31919869514182        0.08148447160805
N            2.23941514930103        0.20939218948625        0.03299365072203
C            2.60513659315501       -1.08317101706836        0.00534368554045
N            1.42970267491810       -1.78638311447485       -0.01372241951694
C            0.36128345159835       -0.94909934977660       -0.00878968174137
C            0.86423143705856        0.33425395623798        0.01969890209901
C            0.00914344520422        1.48539082921270        0.00354467615896
O            0.34718477597578        2.65109520851891        0.00537076397665
N           -1.34305036529325        1.11032998082474       -0.02738415013192
C           -2.33390328556257        2.17650347563539       -0.04428471788661
C           -1.86908610606336       -0.16869123233331       -0.04560125348453
O           -3.06247742287369       -0.36611091077852       -0.06914107951668
N           -0.96628504265116       -1.22695686188923       -0.03858981442076
C           -1.46090936813082       -2.58752798208153       -0.05858208469796
H            3.56764944239571        1.42385454808905        1.08749053398951
H            3.97695851354577        1.14752933753600       -0.61190099032993
H            2.62673113569998        2.23335832186263       -0.17997896787462
H            4.88548192405218       -3.68651175387568        0.05461839099014
H           -1.80402957925993        3.12617326786304       -0.01933473998321
H           -2.93991209795903        2.10548739578823       -0.94704294865444
H           -2.99045795006112        2.08602140642602        0.82062125777814
H           -1.14070518453992       -3.12442921729652        0.83591179580551
H           -1.10619432505738       -3.10974605220195       -0.94873078353304
H           -2.54852708747563       -2.53702858633259       -0.07924123198319
H            1.40957376549979       -2.79390374576958       -0.02771935271862
25
 energy: 53.183210622071 xtb: 6.6.1 (8d0f1dd)
C            3.15656948992861        1.31902612141837        0.08229200593965
N            2.24113965490817        0.20892745393163        0.03263038386582
C            2.60630376347739       -1.08277467357047        0.01098953620755
N            1.43073244647716       -1.78710665790642       -0.01181116838124
C            0.36249931375146       -0.94909968399657       -0.00881203627095
C            0.86524362943159        0.33417609387371        0.01836733477006
C            0.00838237762573        1.48443393540296        0.00331243538445
O            0.34747678367930        2.65043603450587        0.00602041922979
N           -1.34374992527227        1.11026527907109       -0.02669880916811
C           -2.33468059553976        2.17671026440365       -0.04517488457361
C           -1.86913275543384       -0.16852701842572       -0.04445099291843
O           -3.06249951983227       -0.36651527598640       -0.06914380668028
N           -0.96625614032276       -1.22659476772998       -0.03725950261532
C           -1.46066199009793       -2.58717905887134       -0.05851594682953
H            3.57016340542420        1.42232890295324        1.08747223652811
H            3.97677684536608        1.14868362514225       -0.61291025369457
H            2.62745415280644        2.23407437641501       -0.17667572638508
H            4.87851945809760       -3.68500629207072        0.04670322152961
H           -1.80467478577173        3.12637126202036       -0.02064641575778
H           -2.94026062593656        2.10483442880468       -0.94823057829483
H           -2.99182405546949        2.08667142348432        0.81925372384042
H           -1.14033670134902       -3.12496948320792        0.83551790518406
H           -1.10626383565306       -3.10906260612252       -0.94911860534790
H           -2.54829447143418       -2.53684160152020       -0.07880308619066
H            1.40958838611162       -2.79423329327487       -0.02727347717666
25
 energy: 53.159744244382 xtb: 6.6.1 (8d0f1dd)
C            3.15668943336972        1.31923886315773        0.08266236358007
N            2.24324799255338        0.20773392770674        0.03128386092702
C            2.60728084574970       -1.08235095282076        0.01535497686070
N            1.43184507152294       -1.78787464576734       -0.00939301549478
C            0.36325550191743       -0.94877673785593       -0.00935957090289
C            0.86558964498327        0.33432870857058        0.01731236391714
C            0.00802898613662        1.48351383043806        0.00155361583838
O            0.34763563104655        2.65000563425612        0.00547754674892
N           -1.34411777356911        1.10999749182196       -0.02687039506661
C           -2.33451993818925        2.17705259916750       -0.04456802583581
C           -1.86888067670973       -0.16816079746393       -0.04555947972940
O           -3.06227868360392       -0.36695898142268       -0.06999384581632
N           -0.96644487018554       -1.22643110627471       -0.03682205923898
C           -1.46037788138969       -2.58701651185341       -0.05860840601555
H            3.56867074200079        1.42349132727900        1.08829751011446
H            3.97760617334359        1.14912795327944       -0.61208260264260
H            2.62637913758779        2.23412440415888       -0.17750878014844
H            4.87433064653660       -3.68435570308666        0.04223237882680
H           -1.80388967683474        3.12633809841288       -0.01966799101518
H           -2.94020567719673        2.10535696861879       -0.94755399326603
H           -2.99124564220859        2.08624383192998        0.82005133245659
H           -1.14011583595990       -3.12497788357266        0.83549876134062
H           -1.10609902325595       -3.10927308323202       -0.94919293040952
H           -2.54802991732364       -2.53685215341125       -0.07897668704224
H            1.40786009465088       -2.79449629329234       -0.02653301579175
25
 energy: 53.160131827135 xtb: 6.6.1 (8d0f1dd)
C            3.15665042093298        1.31912766209390        0.08277696023235
N            2.24358902409689        0.20731680595474        0.03106235968333
C            2.60704126274285       -1.08140769600827        0.01517943653272
N            1.43203112377550       -1.78778399425434       -0.00909982577915
C            0.36307174214115       -0.94835486361514       -0.00924392865599
C            0.86494410646861        0.33474485509668        0.01835198368588
C            0.00797194396524        1.48355057826772        0.00209048796524
O            0.34747524798058        2.65015948159985        0.00533738129698
N           -1.34419550446667        1.10990169876949       -0.02624122034434
C           -2.33460876068608        2.17698306907383       -0.04501550600306
C           -1.86865688491816       -0.16795259697807       -0.04493860167392
O           -3.06211601154276       -0.36716895166041       -0.06993441025648
N           -0.96647770989242       -1.22660202335858       -0.03613899066232
C           -1.46028999755630       -2.58704061492647       -0.05853492981034
H            3.56928033485861        1.42291771449554        1.08801178548824
H            3.97737269994510        1.14944870447460       -0.61222450557098
H            2.62653800950336        2.23397094379948       -0.17663635787269
H            4.87608967981083       -3.68477614799894        0.04146463378325
H           -1.80396202393955        3.12623785111224       -0.02032117685274
H           -2.93993828279694        2.10485630792852       -0.94818914082397
H           -2.99162452372849        2.08645996763836        0.81938095410911
H           -1.14000826835550       -3.12530614093161        0.83538860030659
H           -1.10613933617545       -3.10905161336767       -0.94932497329373
H           -2.54797729058611       -2.53683997219819       -0.07879062556408
H            1.40615330339521       -2.79436223626327       -0.02737647772533
