25
 energy: 0.000000000000 xtb: 6.6.1 (8d0f1dd)
C            3.23720132972391        1.16630909158653        0.08434468864950
N            2.29877796055224        0.07527476373246        0.03981602671198
C            2.58028186251803       -1.21425391179017        0.03006175752192
N            1.43813944744728       -1.93419254010258        0.00098261751768
C            0.39035684826767       -1.05887462812143       -0.00790371763344
C            0.93510047688824        0.21347817468824        0.01709077332874
C            0.09450143016486        1.40504290868848       -0.00410946993748
O            0.49712746915594        2.54126690785742       -0.00342325656480
N           -1.25076628431515        1.06271869620815       -0.03085477937476
C           -2.21907191394203        2.15522079838987       -0.05001256521996
C           -1.81739470187490       -0.20012724136556       -0.04692818139228
O           -2.99983858926755       -0.37846413507442       -0.07008877579474
N           -0.92618577614240       -1.30210203518959       -0.03682761236648
C           -1.46982251276835       -2.64643077634382       -0.06029819901142
H            3.71247229913541        1.21471443890471        1.06488839270555
H            4.00791460421487        1.03430799217987       -0.67357688121503
H            2.69909982127087        2.09770098766290       -0.09130154035862
H            3.56654087521359       -1.63682977417947        0.04233139674524
H           -1.67107945562430        3.09322822573871       -0.02552706696334
H           -2.82428927394145        2.09428605349656       -0.95318074103337
H           -2.87644002486466        2.07745706351925        0.81450059976605
H           -1.17061985538665       -3.19584861009707        0.83242224714061
H           -1.14560246782873       -3.17511580834413       -0.95688266944647
H           -2.55549768731684       -2.55659960601237       -0.07459039105944
H            1.38130842369251       -2.94313824728853       -0.01389874052104
25
 energy: -6.301064222095 xtb: 6.6.1 (8d0f1dd)
C            3.24216996204960        1.17971209760048        0.08596600216234
N            2.32308149210646        0.09146525912052        0.03303873466559
C            2.62059894448277       -1.26110425785018        0.03155087017845
N            1.42256620535229       -1.93861755583830       -0.00246937786058
C            0.40577422086317       -1.05607513336490       -0.00920268980721
C            0.93373037494311        0.22726394632252        0.01382248415923
C            0.12101848486861        1.38652479663244       -0.00439120613143
O            0.49011125435056        2.56404694820759       -0.00388836770259
N           -1.26742638826041        1.05169740593302       -0.03048450574221
C           -2.22429392825539        2.14844301539613       -0.04884327396363
C           -1.81576153474593       -0.19384446459267       -0.04691715657698
O           -3.01411624824135       -0.38395025357441       -0.06987292926893
N           -0.93423568892363       -1.29453426731615       -0.03727547451712
C           -1.46931705880796       -2.63686642747084       -0.06022118904890
H            3.71080137310641        1.23704914740346        1.07216335382051
H            4.01738664562851        1.05106784052616       -0.67042963105039
H            2.68972460653677        2.10199534076425       -0.10085885921411
H            3.58159549327478       -1.74111080610200        0.04186838499967
H           -1.67059449894120        3.08477195226779       -0.02455535104936
H           -2.83162152600978        2.09355661625322       -0.95258660937719
H           -2.88354974941697        2.07646937252122        0.81640926242653
H           -1.16731420045441       -3.19013961441830        0.83210909436786
H           -1.14236379533686       -3.17034464736038       -0.95593621578512
H           -2.55493944913069       -2.54945852769954       -0.07469352083270
H            1.36067241523672       -2.94147703399654       -0.01648115587418
25
 energy: -5.187832824409 xtb: 6.6.1 (8d0f1dd)
C            3.24427481864702        1.18550602307571        0.08591112562264
N            2.34297742934532        0.07963145015371        0.03056150585449
C            2.63996395136759       -1.28551856478279        0.02999136028026
N            1.42505594133701       -1.93956587269493       -0.00700565748478
C            0.41258483121595       -1.05147399149976       -0.01065448741793
C            0.94827656666678        0.22873066157545        0.01227832657768
C            0.12799646322748        1.38746700842484       -0.00353822610127
O            0.48722229304074        2.56810419995037       -0.00281179397616
N           -1.26672470653103        1.05273656143881       -0.02957346870139
C           -2.22898765626761        2.14653210994760       -0.04830763662185
C           -1.81596137489314       -0.19165892580464       -0.04663493212333
O           -3.01453841644188       -0.38348533238323       -0.06952009177022
N           -0.93026663957655       -1.28860174960402       -0.03735622190593
C           -1.46683436584726       -2.63157820910989       -0.05986292193392
H            3.70580614072665        1.25490289661857        1.07500059405103
H            4.02402862874143        1.06683527510270       -0.66660019175764
H            2.67848971962068        2.10065987040748       -0.10940024541033
H            3.57977945003643       -1.83722819169639        0.04016124174032
H           -1.67812752381612        3.08396456947134       -0.02410049407703
H           -2.83766674143679        2.09131074248766       -0.95183983078117
H           -2.89062102071137        2.07438181351750        0.81600895278318
H           -1.16524073592062       -3.18506309360209        0.83247182074301
H           -1.13968185244987       -3.16587311615256       -0.95496726737164
H           -2.55280842769565       -2.54438410946268       -0.07478483321971
H            1.34766262411861       -2.94061717393666       -0.01889805419185
25
 energy: -2.919613327987 xtb: 6.6.1 (8d0f1dd)
C            3.24545172619804        1.18994917418751        0.08541409011271
N            2.36213165951321        0.06685931030070        0.02735320182952
C            2.65941137108172       -1.31103419241927        0.02858975897239
N            1.42787892933630       -1.93927843330972       -0.00808634448378
C            0.41895284796525       -1.04644443398003       -0.01145988584110
C            0.96227834078679        0.23011596374108        0.01075956140919
C            0.13508535000310        1.38942731558822       -0.00274452550702
O            0.48492614333792        2.57236159647533       -0.00220688826723
N           -1.26646978033592        1.05517789399042       -0.02838483562881
C           -2.23402332242449        2.14610936880331       -0.04747590590890
C           -1.81591998158404       -0.18825493603185       -0.04618487029978
O           -3.01485952830748       -0.38181842391712       -0.06942200085333
N           -0.92656494502150       -1.28228256004801       -0.03724803722251
C           -1.46373983073434       -2.62634419391363       -0.05965646098442
H            3.69962476932679        1.27044990146452        1.07731278561478
H            4.03018139592101        1.08029111983048       -0.66241891612142
H            2.66696049338674        2.09781358444094       -0.11875415883972
H            3.57786289098003       -1.93104753687070        0.03809044262924
H           -1.68728811283188        3.08563862494251       -0.02334542753729
H           -2.84417897870263        2.08983625319117       -0.95060659979609
H           -2.89779712231948        2.07260619852136        0.81587336689474
H           -1.16182063333380       -3.17980322964275        0.83259297355358
H           -1.13560267414088       -3.16087121082753       -0.95425071853602
H           -2.55012912700026       -2.54110703074456       -0.07509363459370
H            1.33480382678116       -2.93801197626992       -0.02069118310170
25
 energy: 0.424397676491 xtb: 6.6.1 (8d0f1dd)
C            3.24585564310294        1.19383826838222        0.08440310502032
N            2.38026158659359        0.05297764064818        0.02371964706163
C            2.67575859109238       -1.33975390756712        0.02711915555447
N            1.42697524457464       -1.93980187770162       -0.00967593199924
C            0.42425181802076       -1.04120429719121       -0.01227290628733
C            0.97578763315462        0.23105559907963        0.00935570797039
C            0.14054018948078        1.39237485993248       -0.00210660337380
O            0.48058813179005        2.57718971517591       -0.00159294540292
N           -1.26551848058414        1.05809111334390       -0.02690386524294
C           -2.23858814550609        2.14602819558855       -0.04624061752680
C           -1.81542215310197       -0.18510640818625       -0.04567377489463
O           -3.01477672489430       -0.38087828725975       -0.06911586295867
N           -0.92325054564237       -1.27607162795046       -0.03719026636705
C           -1.46004615444651       -2.62155148414914       -0.05982269913153
H            3.69286454923804        1.28798592405533        1.07871282975073
H            4.03621400584589        1.09546069820353       -0.65831314871824
H            2.65477108679821        2.09361630142334       -0.12887275323393
H            3.56976389292365       -2.02739063687853        0.03534174106338
H           -1.69508603198720        3.08723110406728       -0.02212803352982
H           -2.85027873419077        2.08900163356884       -0.94891636221983
H           -2.90442337346016        2.07111566980160        0.81614082464868
H           -1.15797348924134       -3.17525310049964        0.83220688805332
H           -1.13080170554648       -3.15622851018919       -0.95388053476208
H           -2.54672253082298       -2.53875774467276       -0.07595489198729
H            1.31949541979875       -2.93681487148115       -0.02245442548879
25
 energy: 4.789493268914 xtb: 6.6.1 (8d0f1dd)
C            3.24533681320355        1.19732791549529        0.08385948753283
N            2.39601312256150        0.03891391603286        0.01930419897811
C            2.69300991985429       -1.36934323386879        0.02324580821564
N            1.42874837005123       -1.94293763313522       -0.01322578848167
C            0.43111501596991       -1.03941386852298       -0.01280730031237
C            0.98538308190697        0.22993940483841        0.01313484440138
C            0.14022275963730        1.39292295136985        0.00017780106184
O            0.47319439236327        2.57944348651508       -0.00056156893287
N           -1.26457040402530        1.06097787510415       -0.02505476895413
C           -2.24290283000599        2.14593335448579       -0.04529195474262
C           -1.81148271754299       -0.18378319949871       -0.04475299578265
O           -3.01026888933751       -0.38174534800665       -0.06842397944414
N           -0.91829103821621       -1.27222033739301       -0.03689477279386
C           -1.45796518252907       -2.61768329749940       -0.05942373702689
H            3.68602794200717        1.30548370661144        1.08020960080224
H            4.04235212299108        1.11107266832721       -0.65282582830103
H            2.64351556748422        2.08955943673134       -0.13821506428187
H            3.57203342919542       -2.11549604458824        0.02770654056262
H           -1.70103937222855        3.08791916613963       -0.02126794368582
H           -2.85569590346864        2.08879377425431       -0.94765446389855
H           -2.91099023614620        2.07061883527217        0.81584755577304
H           -1.15739992643418       -3.17229827700677        0.83255240991060
H           -1.13010510189456       -3.15365646202282       -0.95319728418464
H           -2.54458722867937       -2.53354305689185       -0.07569440364378
H            1.30873284759808       -2.93876851442142       -0.02941132822790
25
 energy: 9.762058760708 xtb: 6.6.1 (8d0f1dd)
C            3.24259005928829        1.20351641105349        0.08018293681275
N            2.39996534443106        0.03931764844639        0.00752579292363
C            2.70644520043457       -1.37676713347704        0.00890740918404
N            1.43366896154500       -1.93885674176306       -0.01304071616652
C            0.43457958830200       -1.03585367334243       -0.00951213885005
C            0.98583192038265        0.23418916813996        0.01655841860078
C            0.13613053810532        1.39691899330070        0.00425875043933
O            0.46504552539678        2.58417912122798        0.00212035796360
N           -1.26555360447366        1.06371802588798       -0.02183732687459
C           -2.24970887236378        2.14591606859088       -0.04310903396911
C           -1.80881046689304       -0.18247707051486       -0.04286053090121
O           -3.00688340513605       -0.38202415478373       -0.06788800493471
N           -0.91431041454133       -1.26870592641792       -0.03563628867215
C           -1.45452131234355       -2.61387698530851       -0.05986076992375
H            3.67623779611114        1.31818274482561        1.08001119024799
H            4.04875818785158        1.12370394117499       -0.64803804565877
H            2.63392408575745        2.08861514943841       -0.15066091463987
H            3.62039919377760       -2.15909158683106        0.03425696097276
H           -1.71127417348682        3.08990368973769       -0.01925007213395
H           -2.86294205598572        2.08766604766187       -0.94528876083503
H           -2.92040892924416        2.06896688238994        0.81620415562937
H           -1.15664388006101       -3.16860275996611        0.83300251895543
H           -1.12384897154375       -3.14918349806504       -0.95302143965893
H           -2.54088819340681       -2.52751691046029       -0.07960496735021
H            1.30654794170083       -2.93277481845223       -0.02997115562483
25
 energy: 17.695367894455 xtb: 6.6.1 (8d0f1dd)
C            3.23741339111468        1.21095514459563        0.07756735966412
N            2.39866886477315        0.04620577816205        0.00074924187385
C            2.71296679627656       -1.37422868216078       -0.02245535958820
N            1.43650732855408       -1.93182001044169       -0.01679547331012
C            0.43474150529116       -1.03028842798813       -0.00510222102390
C            0.98284826464602        0.23997149914752        0.02266349062604
C            0.12971048683807        1.40114566656329        0.00721805771518
O            0.45723990632388        2.58795383675262        0.00638387793816
N           -1.27077102362941        1.06601522797818       -0.02087612650965
C           -2.25749726678469        2.14682525055944       -0.04142963672092
C           -1.81133724643576       -0.18139288561081       -0.04231178692086
O           -3.00905259713617       -0.38189922069321       -0.06463541073022
N           -0.91287138350750       -1.26496883887703       -0.03441697874181
C           -1.45173256823493       -2.60988671126285       -0.05964880686860
H            3.66633397405067        1.33267957591210        1.07968008172775
H            4.05100681011328        1.13717078410824       -0.64434643398908
H            2.62136179166671        2.08732561105881       -0.16176237789892
H            3.67228763193422       -2.22006552442067        0.05384112503515
H           -1.72294288981290        3.09299681555037       -0.01795150938607
H           -2.87062085393173        2.08601968841353       -0.94349553775281
H           -2.93034532412270        2.06662606554665        0.81595926601612
H           -1.15295783844542       -3.16223940056114        0.83405472772395
H           -1.12035451808321       -3.14552941323297       -0.95232988877224
H           -2.53785720702837       -2.52187510915816       -0.07951503139026
H            1.30867611735142       -2.92464537733447       -0.03827036764530
25
 energy: 46.520988517528 xtb: 6.6.1 (8d0f1dd)
C            3.22302733865013        1.22775145885993        0.07594139244222
N            2.35064116205534        0.07795354692388       -0.00282334600942
C            2.64483890434766       -1.24921997566154       -0.09014581762865
N            1.44064789160687       -1.88834570916902       -0.02838674708129
C            0.41227055504496       -1.00507354102212        0.00621956425845
C            0.95580273886379        0.26140518975980        0.03893909805318
C            0.09606007528188        1.42401545364978        0.01557716818120
O            0.43614855756962        2.59401955623448        0.00273645199605
N           -1.27866648744259        1.07615061463024       -0.02222432110479
C           -2.26749856850486        2.15116346170427       -0.04118881039265
C           -1.82185912136978       -0.18406147691545       -0.04188877870244
O           -3.01692730623932       -0.37743397543392       -0.06981718896566
N           -0.92477974440880       -1.25642371373112       -0.02763174188785
C           -1.45328991490629       -2.60679907665268       -0.05745926666896
H            3.64502757659071        1.34708963766573        1.08095711339107
H            4.04970937031541        1.13828823459191       -0.62826293642918
H            2.62118723914545        2.10281463462318       -0.18067538211090
H            3.96615470649602       -2.57228621850696        0.09845323121198
H           -1.73279873988272        3.09691791977060       -0.01909418669555
H           -2.88255512711426        2.08502663474208       -0.94039267850291
H           -2.93237665223133        2.06636561910506        0.82058247159662
H           -1.15033021349607       -3.15857031524795        0.83423734036038
H           -1.12081712852414       -3.13898795019992       -0.95122800831868
H           -2.53899400790839       -2.52104132925422       -0.07576442067097
H            1.33583081110321       -2.88963907864769       -0.04161257164485
25
 energy: 46.729122905848 xtb: 6.6.1 (8d0f1dd)
C            3.21855598252219        1.23709915212176        0.07466905807749
N            2.33810591069501        0.09211461822793       -0.00868774618293
C            2.63790583248459       -1.22638872160904       -0.08340706539216
N            1.43931993740002       -1.87476325706200       -0.02993621700190
C            0.40545326166228       -0.99633134418746        0.00692896921334
C            0.94605396025739        0.27057604908970        0.03751375726855
C            0.08452517566760        1.43195904831273        0.01460179521822
O            0.42588267083275        2.59887677947262        0.00404281671732
N           -1.28495608384936        1.08060561761421       -0.01917765923455
C           -2.27436234244225        2.15401465480591       -0.04083414831547
C           -1.82762552587435       -0.18301543952432       -0.04058198995197
O           -3.02206723112081       -0.37626753928359       -0.07227993521085
N           -0.92965849811535       -1.25159242314665       -0.02293464893581
C           -1.45291169498911       -2.60327243121394       -0.05711495797802
H            3.63497647097783        1.35890311311636        1.08168517293879
H            4.05155704140458        1.14656725454710       -0.62172672446084
H            2.62355422269417        2.11046346138338       -0.19251058375510
H            4.06386258620623       -2.67104409335012        0.10089883575815
H           -1.74112374445436        3.10064655064617       -0.01785251313340
H           -2.88515589240362        2.08383332482707       -0.94094700795227
H           -2.94095037783552        2.06895573959348        0.81896242311632
H           -1.15067713802256       -3.15456204889621        0.83495193664718
H           -1.11658805993744       -3.13377413009157       -0.95046618092275
H           -2.53823441534936       -2.51745447567590       -0.07856363040916
H            1.34428897852329       -2.87710025720712       -0.03979659885288
25
 energy: 47.322340014155 xtb: 6.6.1 (8d0f1dd)
C            3.21282505627490        1.24825529856412        0.07735434266192
N            2.32660855527666        0.10660753419921       -0.00892591151615
C            2.63136572019372       -1.20826379184548       -0.08841945877102
N            1.43682304049277       -1.86344161645576       -0.03179816363121
C            0.39889295063513       -0.98911308026515        0.01061183212116
C            0.93582784999152        0.27921364737315        0.04156811388408
C            0.07391835122545        1.43846917763712        0.01519296461617
O            0.41479014509039        2.60520761891642        0.00482582840401
N           -1.29427856140061        1.08407554669850       -0.01887181576793
C           -2.28249475524598        2.15782225541358       -0.04229744005148
C           -1.83471275996908       -0.18117518358882       -0.04068312592490
O           -3.02885276624397       -0.37632740044461       -0.07506374009406
N           -0.93509332566403       -1.24772509522252       -0.01888536270719
C           -1.45122113475508       -2.60068827600410       -0.05711782954421
H            3.62492864993363        1.37686775536135        1.08517913589102
H            4.05282630639145        1.15260158995733       -0.61014041409108
H            2.62449545747865        2.12473595981928       -0.18991491809255
H            4.14960895622395       -2.76216050343835        0.11266050623308
H           -1.74765022215958        3.10378074983453       -0.01738708992100
H           -2.89259110860570        2.08910957855295       -0.94310967431214
H           -2.94939752182930        2.07451239985147        0.81713275807392
H           -1.14725511583892       -3.15079664034301        0.83498178249705
H           -1.11160356487726       -3.12944176342228       -0.95045112887308
H           -2.53627729471307       -2.51665340613040       -0.08003411295072
H            1.35163071099919       -2.86651606490001       -0.04462506129787
25
 energy: 48.272635946730 xtb: 6.6.1 (8d0f1dd)
C            3.20573605846180        1.25728577920508        0.08133605881267
N            2.31361580195688        0.12050856448753       -0.00757473490711
C            2.62459005033735       -1.18980629785342       -0.08888398337379
N            1.43451367385892       -1.85267384069550       -0.03285975691713
C            0.39222695740346       -0.98272856599222        0.01121940765894
C            0.92470097973246        0.28736002843736        0.04224889646823
C            0.06463275466732        1.44539192207770        0.01341314743816
O            0.40583515252692        2.61205301676115        0.00436464035247
N           -1.30236840346905        1.08820261239459       -0.02021266070551
C           -2.29117460816244        2.16088074738175       -0.04389119475950
C           -1.84084142143790       -0.17851554292252       -0.04195971711665
O           -3.03479840997738       -0.37515347837895       -0.07731782780236
N           -0.94090179627759       -1.24393746730253       -0.01665979348952
C           -1.45170221706437       -2.59738311424304       -0.05621235793416
H            3.61367048003396        1.38662527623801        1.09033263897545
H            4.05310981550240        1.15303856944235       -0.59694477507120
H            2.62451311402149        2.13916369159034       -0.18113378467830
H            4.24120481519150       -2.85567499749196        0.12145561008324
H           -1.75730538211607        3.10789849628409       -0.01627657979465
H           -2.89993251128981        2.09197621968548       -0.94580667121509
H           -2.95892647833816        2.07610176536404        0.81497305779345
H           -1.14514091420598       -3.14589679819150        0.83599463309968
H           -1.11004767687320       -3.12459707269597       -0.94979729340279
H           -2.53715925954465       -2.51549216692544       -0.07924675531234
H            1.36162709433355       -2.85664025244021       -0.04815290820147
25
 energy: 49.230068621340 xtb: 6.6.1 (8d0f1dd)
C            3.19608275941380        1.26604832452795        0.08119895416087
N            2.29709961396757        0.13581730083628       -0.00235245379793
C            2.61585155934305       -1.16739145925668       -0.08004329655265
N            1.43201967144781       -1.84175327166078       -0.03252957352776
C            0.38489523888764       -0.97742397753180        0.01014904768417
C            0.91125782555161        0.29450201082731        0.04229412693238
C            0.05514737331125        1.45088095592041        0.01198633224386
O            0.39770552760842        2.61629168418322        0.00503383679914
N           -1.30830503975962        1.09252965574023       -0.02185499883977
C           -2.29833020783411        2.16344294975398       -0.04548662988743
C           -1.84524195331333       -0.17646806632509       -0.04098489056167
O           -3.03907013706668       -0.37157170534773       -0.07411848448880
N           -0.94669595546682       -1.24076409742957       -0.01851872112453
C           -1.45254712672516       -2.59494840059078       -0.05563892116390
H            3.60025684530677        1.39472240091125        1.09189694758380
H            4.04565807068482        1.15261398736301       -0.59531460268142
H            2.62390917286151        2.15531094804343       -0.17701753001901
H            4.33215843213222       -2.95659463564113        0.12364724932469
H           -1.76295106513628        3.10972487357830       -0.01809904018050
H           -2.90725308036492        2.09434943102950       -0.94785186795997
H           -2.96250613157245        2.07583954678091        0.81594024821525
H           -1.14342657025905       -3.14179591644067        0.83677245745824
H           -1.10804341637315       -3.12000450025304       -0.94930348488155
H           -2.53901893441545       -2.51934611923181       -0.07709904721785
H            1.37134452267263       -2.84646858520288       -0.05065424057957
25
 energy: 50.300125351348 xtb: 6.6.1 (8d0f1dd)
C            3.18640845643272        1.27487810832536        0.08041745294795
N            2.28188694733812        0.15063044064919        0.00627019348852
C            2.60589128520957       -1.14583603174365       -0.06954662582559
N            1.42768916919600       -1.83059319629572       -0.03151381067081
C            0.37705115707921       -0.97101071719842        0.01124793317068
C            0.89868301186194        0.30241605501516        0.04458538635806
C            0.04572847181746        1.45660147022393        0.01065115141344
O            0.38835572527065        2.62122073953903        0.00410349905196
N           -1.31445758662330        1.09630412487171       -0.02270964684937
C           -2.30446573148106        2.16593351019855       -0.04484230109992
C           -1.85092141108773       -0.17401109244395       -0.04102254603135
O           -3.04432643726222       -0.37041108852761       -0.07466576159282
N           -0.95265743244983       -1.23672556213607       -0.02026356428187
C           -1.45308416659653       -2.59267304811716       -0.05453191550745
H            3.58997477481536        1.40579214183927        1.09155805201571
H            4.03256887335551        1.15689707241114       -0.60084667875858
H            2.62263593882311        2.17015975465394       -0.17536636046795
H            4.42519898651299       -3.06252405701315        0.12275457587009
H           -1.76972879860650        3.11231448088528       -0.02142825076000
H           -2.91302325093746        2.09316894974145       -0.94631849917590
H           -2.96595543006258        2.07666653194995        0.81772270710877
H           -1.14165672302299       -3.13636526564294        0.83896557360528
H           -1.10564365667612       -3.11698364559493       -0.94754137883176
H           -2.53987731630264       -2.52133482906676       -0.07483540580897
H            1.37364809845249       -2.83539398620436       -0.05704508671316
25
 energy: 51.226524498094 xtb: 6.6.1 (8d0f1dd)
C            3.18006567211157        1.28104857794271        0.07804651715117
N            2.27358891091388        0.16163489349990        0.00664669110152
C            2.60035382693753       -1.13264060040367       -0.06533132999301
N            1.42346557283698       -1.81995988252278       -0.03086606503394
C            0.37059732364601       -0.96321726030054        0.01300974319170
C            0.89069598946501        0.31130497135589        0.04703070508645
C            0.03689480293195        1.46261513140672        0.01096895480151
O            0.37768826452843        2.62767280810916        0.00363006218320
N           -1.32251668535877        1.09923677624122       -0.02163456481996
C           -2.31192144039080        2.16920167192362       -0.04503333887630
C           -1.85835003305892       -0.17144172231835       -0.04049015863363
O           -3.05153902312329       -0.36932278832056       -0.07678675886450
N           -0.95891584473131       -1.23273244552785       -0.01718376997609
C           -1.45555039596860       -2.59081239539100       -0.05303614278197
H            3.57505408148091        1.41418283228596        1.09204288065562
H            4.02333986616531        1.15080341076844       -0.60279772483425
H            2.62464324954815        2.17736348783582       -0.19032918251237
H            4.51908664817907       -3.16829111093593        0.12228342979444
H           -1.77696539946162        3.11551746783456       -0.02237770683444
H           -2.91855320258256        2.09547856333963       -0.94750192367297
H           -2.97550429043039        2.08180549326686        0.81617622287341
H           -1.14399604105216       -3.13463047010847        0.84022881233584
H           -1.10722084627126       -3.11418754025840       -0.94661530589807
H           -2.54218105503520       -2.52447155579885       -0.07436270525512
H            1.37066633018325       -2.82387736199690       -0.05751562685965
25
 energy: 51.966404915511 xtb: 6.6.1 (8d0f1dd)
C            3.17939358828012        1.28905250401438        0.07818399676273
N            2.27558501152511        0.16977193417750        0.00032814990251
C            2.61216683119060       -1.12730550087298       -0.06875543226664
N            1.42729121820189       -1.80986901083352       -0.03339596042285
C            0.37072625097422       -0.95554140463789        0.01553883283711
C            0.88971136349559        0.31953197831399        0.04906164544242
C            0.02963043868639        1.46794254134240        0.01397607359990
O            0.36605052759562        2.63459647224424        0.00412048965507
N           -1.33075541623982        1.10183930036675       -0.01987000183269
C           -2.32095550263161        2.17230935238013       -0.04541983005145
C           -1.86394034691547       -0.16970033067059       -0.03971875249640
O           -3.05703255129101       -0.36956418046467       -0.07885897238207
N           -0.96078104363766       -1.22910028753923       -0.01319958789307
C           -1.45558910791895       -2.58934503671910       -0.05201030958440
H            3.57782756276693        1.41518074333746        1.09215813471865
H            4.01925479873729        1.14420119211467       -0.60083286344194
H            2.62823087689690        2.18786160695644       -0.19230895030097
H            4.60855422072579       -3.27761786900667        0.12627160875564
H           -1.78522920109913        3.11842293863963       -0.01939474941308
H           -2.92711114874587        2.10086314754102       -0.94897726211908
H           -2.98672062695663        2.08692574539527        0.81454608248953
H           -1.14348473387253       -3.13688580784436        0.83931069493779
H           -1.10521015148896       -3.10986895861492       -0.94617313299853
H           -2.54232677670789       -2.52782198534887       -0.07709774880430
H            1.37036805206809       -2.81322136599330       -0.05820900192637
25
 energy: 52.554062207790 xtb: 6.6.1 (8d0f1dd)
C            3.17410998143417        1.29894948120146        0.07867418473678
N            2.26978648594795        0.17877698016068        0.00225752092797
C            2.61654953682939       -1.11898059182730       -0.06620290438640
N            1.42882108709753       -1.80169469658487       -0.03152691878721
C            0.36787091816552       -0.95117257602134        0.01448808371054
C            0.88309844879226        0.32539939413812        0.04734366574316
C            0.02121939373505        1.47288522665204        0.01541301815675
O            0.35483860969088        2.64072070920741        0.00440031671050
N           -1.33934135036426        1.10420847869631       -0.01939635000002
C           -2.32957176436891        2.17505940513109       -0.04687552219159
C           -1.86907713807333       -0.16851381453380       -0.03996436069235
O           -3.06211008338329       -0.37017399450466       -0.07982438974282
N           -0.96376096864414       -1.22698308109104       -0.01420174864387
C           -1.45620719188678       -2.58826960836968       -0.05397795375760
H            3.57509771024531        1.41066431037332        1.09194349690188
H            4.00927926370063        1.14699015568919       -0.60344936443977
H            2.62940006661120        2.20517541246063       -0.18475316064571
H            4.69788432202264       -3.38604073793401        0.12887264875706
H           -1.79384565702106        3.12139641705747       -0.02092092738456
H           -2.93578688820556        2.10576195681963       -0.95093254482053
H           -2.99422305320878        2.09065253906725        0.81378094382508
H           -1.14109450118738       -3.13481754502176        0.83709075757599
H           -1.10358233495200       -3.10705106075485       -0.94815489959081
H           -2.54348705718659       -2.53142841910031       -0.07754436400983
H            1.37726104772370       -2.80519860060983       -0.05367378883187
25
 energy: 52.825416895380 xtb: 6.6.1 (8d0f1dd)
C            3.16456196412560        1.30960671888463        0.07741119867969
N            2.25478501394675        0.19381719082487        0.00752380477565
C            2.60803164508117       -1.09777874563781       -0.04728620426389
N            1.42665960309500       -1.79201745395538       -0.02668848186501
C            0.36147160379284       -0.94713462766404        0.00650742245598
C            0.87111776452371        0.33208240273049        0.03764946527256
C            0.01299779124552        1.47968765893895        0.01282141848970
O            0.34617555915946        2.64791965347266        0.00622457633439
N           -1.34495000964245        1.10692038113843       -0.02061334570280
C           -2.33462593368395        2.17674376193337       -0.04807362566456
C           -1.87174195558233       -0.16732987837281       -0.04217674511978
O           -3.06475964000296       -0.36902018541988       -0.07923328042414
N           -0.96804176561162       -1.22550766152582       -0.02153953524070
C           -1.46027956285842       -2.58627426862343       -0.05373236220174
H            3.56084995522132        1.41059402319272        1.08964996909367
H            3.99651133726411        1.15536848370398       -0.60776687634670
H            2.62818435574282        2.22238351976435       -0.17935736965781
H            4.78420441686767       -3.49644452691895        0.12769239632453
H           -1.80092077915785        3.12427645883055       -0.02400872891749
H           -2.93987955964774        2.10691450640354       -0.95218519039731
H           -2.99305981285407        2.08913878140317        0.81587055784724
H           -1.14220324111008       -3.13189030451168        0.83646463133825
H           -1.10545906815034       -3.10306321759960       -0.94754892708083
H           -2.54790078538974       -2.53504893670179       -0.07604280161430
H            1.38958476251056       -2.79686890116933       -0.04335358261923
25
 energy: 53.065613621100 xtb: 6.6.1 (8d0f1dd)
C            3.15624177257017        1.31481438737095        0.07865236372910
N            2.24566206718894        0.20178250226213        0.02134000064319
C            2.60640531803216       -1.08649804927692       -0.01862678352746
N            1.42792830529054       -1.78681120642892       -0.02096189283194
C            0.36030686644636       -0.94631212096848       -0.00227226647228
C            0.86561180462608        0.33493236577154        0.02811898121829
C            0.01024307648673        1.48388793079418        0.00786649423424
O            0.34348402534218        2.65219375561928        0.00588044232892
N           -1.34346902280870        1.10785992966430       -0.02382498581309
C           -2.33218093408979        2.17603202244752       -0.04489340763664
C           -1.87038964716829       -0.16770111606067       -0.04444919841835
O           -3.06396372086009       -0.36648194995817       -0.07424228178642
N           -0.96860318737883       -1.22582730151091       -0.03094116065175
C           -1.46081356975477       -2.58647820381578       -0.05548398603816
H            3.55851904289544        1.42449625199303        1.08789869820582
H            3.98475563618434        1.14852017773738       -0.60778413772676
H            2.62269373423247        2.22558872542409       -0.18796157566642
H            4.87956219786910       -3.60568898050155        0.11313709159060
H           -1.80040453058210        3.12453686008332       -0.01932216934281
H           -2.93619759223207        2.10375721148701       -0.94860132371576
H           -2.98720211546054        2.08359217813795        0.82050882907778
H           -1.14029482605212       -3.12729132243128        0.83670953093159
H           -1.10549982006799       -3.10626961680417       -0.94740713839639
H           -2.54858516253362       -2.53701701498534       -0.07666849283989
H            1.40022291055788       -2.79262764618057       -0.03814698763476
25
 energy: 53.160131827135 xtb: 6.6.1 (8d0f1dd)
C            3.15665042093298        1.31912766209390        0.08277696023235
N            2.24358902409689        0.20731680595474        0.03106235968333
C            2.60704126274285       -1.08140769600827        0.01517943653272
N            1.43203112377550       -1.78778399425434       -0.00909982577915
C            0.36307174214115       -0.94835486361514       -0.00924392865599
C            0.86494410646861        0.33474485509668        0.01835198368588
C            0.00797194396524        1.48355057826772        0.00209048796524
O            0.34747524798058        2.65015948159985        0.00533738129698
N           -1.34419550446667        1.10990169876949       -0.02624122034434
C           -2.33460876068608        2.17698306907383       -0.04501550600306
C           -1.86865688491816       -0.16795259697807       -0.04493860167392
O           -3.06211601154276       -0.36716895166041       -0.06993441025648
N           -0.96647770989242       -1.22660202335858       -0.03613899066232
C           -1.46028999755630       -2.58704061492647       -0.05853492981034
H            3.56928033485861        1.42291771449554        1.08801178548824
H            3.97737269994510        1.14944870447460       -0.61222450557098
H            2.62653800950336        2.23397094379948       -0.17663635787269
H            4.87608967981083       -3.68477614799894        0.04146463378325
H           -1.80396202393955        3.12623785111224       -0.02032117685274
H           -2.93993828279694        2.10485630792852       -0.94818914082397
H           -2.99162452372849        2.08645996763836        0.81938095410911
H           -1.14000826835550       -3.12530614093161        0.83538860030659
H           -1.10613933617545       -3.10905161336767       -0.94932497329373
H           -2.54797729058611       -2.53683997219819       -0.07879062556408
H            1.40615330339521       -2.79436223626327       -0.02737647772533
