25
 energy: -42.439564372263 xtb: 6.6.1 (8d0f1dd)
C            3.29126576674730        1.08644742584767        0.00602057516270
N            2.34077919592363        0.01219108783570        0.00655632765616
C            2.62327797568414       -1.30562785653175        0.00791398501893
N            1.46868429584377       -2.01147709416664        0.00760066776668
C            0.42751409086813       -1.14146908443334        0.00538985243498
C            0.95478407317505        0.15188557075979       -0.00569125477057
C            0.16216440780331        1.31204053217213       -0.02735243776042
O            0.55001545034792        2.48026608210396       -0.06477302506285
N           -1.25667305460832        1.00863519918391       -0.03359725563038
C           -2.09595353829705        2.04620563851664       -0.17374146180630
C           -1.79707739798694       -0.28504004689252       -0.00623516999390
O           -2.98910056018713       -0.51112444778072       -0.01312087929819
N           -0.90061691081855       -1.36836063065905       -0.00926348479671
C           -1.40182113708866       -2.72448516197317       -0.00520186746198
H            3.75165269427795        1.18580378669342        0.99222451723079
H            4.07363758998500        0.89936257419566       -0.73163806700426
H            2.76647146261107        2.01481321975862       -0.23076339503041
H            3.60780039158492       -1.71939512156505        0.00324033358424
H           -3.58302057589059        4.20555808716591        0.45448115833297
H           -1.62806670463866        2.98501320586416       -0.43918973893259
H           -3.10703994119889        1.82891194129676       -0.46972237605916
H           -1.09942776718025       -3.24353653945782        0.90752047709289
H           -1.02078759415894       -3.25706353427363       -0.87776722588268
H           -2.48985237876250       -2.68290193633973       -0.04734550492086
H            1.43348176502507       -3.01768250721614        0.04265784752627
