  72
        -99.38729888
 N         -1.4385710364        2.5823986201        2.6020544903
 C         -2.2458376174        2.3980751281        1.7395019508
 C         -3.0678389427        2.1341972896        0.6090794688
 C         -3.5586320768        0.6908209814        0.5782950260
 C         -4.3749491095        0.2765861982       -0.4739333478
 C         -4.8345251687       -1.0271490914       -0.5517050828
 O         -5.6255308127       -1.5152459351       -1.5291455469
 C         -6.0925699431       -0.6469390874       -2.5345282437
 C         -4.4645832237       -1.9602570388        0.4542770758
 O         -4.9488382712       -3.2067099415        0.2918285198
 C         -4.6515760634       -4.1887675104        1.2573291602
 C         -3.6590448044       -1.5332949362        1.4976340826
 C         -3.2119088381       -0.2199597675        1.5601641521
 C         -2.2421406657        2.4802442336       -0.6729306644
 C         -1.4403954854        1.3259738304       -1.2720098229
 C         -0.3659042669        0.7589708087       -0.3400218790
 N          0.5538727433       -0.0844250861       -1.0729663761
 C          1.8929571506       -0.1935878793       -0.5367783063
 C          2.9279922912       -0.3444345998       -1.6673393248
 C          4.3249615382       -0.2418109741       -1.1297915382
 C          5.0164235553        0.9599653505       -1.1685983977
 C          6.3044864735        1.0582304868       -0.6665479526
 C          6.9300995635       -0.0466359699       -0.1059733123
 O          8.1774544386       -0.0703758886        0.4021387735
 C          8.9668785445        1.0945047699        0.3391292529
 C          6.2260459217       -1.2818073406       -0.0492781916
 O          6.9051865019       -2.3024049069        0.5123447647
 C          6.3053880032       -3.5738717900        0.5805110470
 C          4.9396773015       -1.3548130282       -0.5609904749
 C         -0.0253629989       -1.3405056947       -1.4875189355
 C         -4.3172008423        3.0922204367        0.7280968213
 C         -5.1458895096        2.7369320287        1.9594181461
 C         -3.9202464744        4.5647782239        0.7641521466
 H         -4.6502570493        0.9804439288       -1.2419274310
 H         -6.6808585936        0.1745156462       -2.1138262890
 H         -6.7309788478       -1.2554906480       -3.1717373011
 H         -5.2695253888       -0.2415292148       -3.1320460224
 H         -5.0313248867       -3.9089020408        2.2444936503
 H         -5.1564373410       -5.0916721728        0.9196989285
 H         -3.5752603651       -4.3774660949        1.3193360300
 H         -3.3714988620       -2.2174695209        2.2789948669
 H         -2.5916968061        0.0811876548        2.3908501163
 H         -2.9430067635        2.8324042240       -1.4306791866
 H         -1.5627637640        3.3020948480       -0.4405601432
 H         -2.1184948072        0.5290362468       -1.5745402290
 H         -0.9412310772        1.7009536049       -2.1677392875
 H         -0.8478419515        0.1990967081        0.4781588196
 H          0.1966074457        1.5867205818        0.0967668453
 H          1.9862604831       -1.0400185579        0.1604622736
 H          2.1255672729        0.7198174193        0.0143343817
 H          2.7490615177        0.4457644966       -2.3967181251
 H          2.7962252790       -1.3052869619       -2.1656214148
 H          4.5536759318        1.8312363731       -1.6061642431
 H          6.8185665275        2.0039626430       -0.7213452627
 H          8.5269384674        1.9092464637        0.9224713079
 H          9.1136437815        1.4230386735       -0.6941280238
 H          9.9275399382        0.8200836365        0.7707291174
 H          7.0447265243       -4.2209520793        1.0486942449
 H          5.3987537611       -3.5576012109        1.1937102037
 H          6.0665658082       -3.9585108575       -0.4157811277
 H          4.4014461006       -2.2892878738       -0.5340232204
 H         -0.7860046304       -1.1649433258       -2.2466997472
 H         -0.4910700022       -1.8755991823       -0.6471048751
 H          0.7414935025       -1.9756999045       -1.9215723963
 H         -4.9269751009        2.9180939179       -0.1621646433
 H         -4.5737996993        2.8915259945        2.8722224055
 H         -5.4705952578        1.6998763087        1.9288728306
 H         -6.0288390496        3.3694003285        2.0019276794
 H         -3.3216605534        4.7894595237        1.6444610638
 H         -3.3605374437        4.8568333496       -0.1197313501
 H         -4.8184541972        5.1761036138        0.8051633705
 H         -1.3783478580        3.2033718710        3.3962472898
