25
 energy: 0.000000000000 xtb: 6.6.1 (8d0f1dd)
C            3.23720163006194        1.16630919979326        0.08434469647475
N            2.29877817382611        0.07527477071623        0.03981603040599
C            2.58028210190900       -1.21425402444508        0.03006176031096
N            1.43813958087363       -1.93419271955128        0.00098261760884
C            0.39035688448383       -1.05887472636071       -0.00790371836672
C            0.93510056364412        0.21347819449412        0.01709077491437
C            0.09450143893243        1.40504303904423       -0.00410947031874
O            0.49712751527797        2.54126714362870       -0.00342325688240
N           -1.25076640035757        1.06271879480407       -0.03085478223738
C           -2.21907211982101        2.15522099834493       -0.05001256985998
C           -1.81739487048744       -0.20012725993278       -0.04692818574614
O           -2.99983886758376       -0.37846417018721       -0.07008878229737
N           -0.92618586207120       -1.30210215599479       -0.03682761578324
C           -1.46982264913417       -2.64643102187190       -0.06029820460571
H            3.71247264356769        1.21471455160235        1.06488849150277
H            4.00791497605742        1.03430808813993       -0.67357694370751
H            2.69910007168542        2.09770118228144       -0.09130154882931
H            3.56654120610678       -1.63682992603973        0.04233140067262
H           -1.67107961066214        3.09322851271934       -0.02552706933167
H           -2.82428953597071        2.09428624779827       -0.95318082946668
H           -2.87644029173232        2.07745725625962        0.81450067533302
H           -1.17061996399332       -3.19584890659852        0.83242232437030
H           -1.14560257411436       -3.17511610292205       -0.95688275822323
H           -2.55549792440841       -2.55659984320617       -0.07459039797972
H            1.38130855184625       -2.94313852034425       -0.01389874181052
25
 energy: -2.687827956507 xtb: 6.6.1 (8d0f1dd)
C            3.23155722820448        1.17869583229116        0.08610774146772
N            2.29675459724049        0.09224455261832        0.03895056889729
C            2.59871116356311       -1.23427398284753        0.03203659606203
N            1.45327514426429       -1.98278548568842        0.00193457677792
C            0.40273414271155       -1.08438595505432       -0.00812964845163
C            0.92100325872411        0.20946252662545        0.01601035638901
C            0.09564070535902        1.39495600398555       -0.00502382600034
O            0.49439632770791        2.56100378540768       -0.00319606895497
N           -1.26726914543494        1.06047438500322       -0.03221451866051
C           -2.22729742639104        2.16246573394589       -0.05136102884016
C           -1.82497193440524       -0.19295582072820       -0.04854831939834
O           -3.02247102977948       -0.37146346979962       -0.07244925992369
N           -0.93538175353895       -1.30146856854879       -0.03748601135398
C           -1.48340929445129       -2.63408132197221       -0.06003703753709
H            3.72366430785084        1.21545156157935        1.06195735817469
H            3.99192161572597        1.04936229496717       -0.68586296908168
H            2.69164555444873        2.11041721921132       -0.07488215969298
H            3.57905629667757       -1.64422690923830        0.04747297217284
H           -1.66995533277940        3.09700165907339       -0.02757582790154
H           -2.83622479356157        2.11379030351236       -0.95414921908397
H           -2.88779662390388        2.09802653522642        0.81322404652012
H           -1.17387793385163       -3.18009736878877        0.83218780592264
H           -1.15204556197989       -3.15932730471022       -0.95693956648762
H           -2.56830280366958       -2.53749047462977       -0.07233856354223
H            1.48085795920501       -3.03176712926916       -0.01265410132625
25
 energy: 4.044787316167 xtb: 6.6.1 (8d0f1dd)
C            3.22196306937636        1.18655654997897        0.08745529089988
N            2.28910462340417        0.10382991977386        0.03751863701384
C            2.61140575509614       -1.24829678997702        0.03610712114195
N            1.47076459122272       -2.03467814106564        0.00419639267406
C            0.41435167527356       -1.12051762742239       -0.00851546437863
C            0.90148456923871        0.19392562644603        0.01425299194796
C            0.09618288658916        1.37138868950827       -0.00610816868774
O            0.48625273902336        2.55388624844017       -0.00219374100274
N           -1.28978352421179        1.06297666162239       -0.03461526995206
C           -2.23647895911029        2.17776843609519       -0.05373646828838
C           -1.82982434976814       -0.18070126372472       -0.05113826529274
O           -3.03384291509959       -0.36405230221570       -0.07632839935930
N           -0.94632601684069       -1.29552772759515       -0.03849878477611
C           -1.50388128709696       -2.61632933830450       -0.05962883769789
H            3.74093311749720        1.20944142825940        1.05290042424948
H            3.96620262016096        1.07403042910914       -0.70616753019494
H            2.67940294878338        2.12197567765246       -0.04552010735343
H            3.59118386537911       -1.63998960776072        0.05702236913302
H           -1.66659088517834        3.10650687138916       -0.03106309698046
H           -2.85012709760566        2.14198307275273       -0.95533178350724
H           -2.90049564185884        2.12807901604123        0.81058343304692
H           -1.18488756280183       -3.16159728871467        0.83051512705179
H           -1.16881372423549       -3.14079534809087       -0.95635150984655
H           -2.58786642274131       -2.51411229144994       -0.06853201913499
H            1.64190059344031       -3.12672229857565       -0.00978844455844
25
 energy: 9.171511098868 xtb: 6.6.1 (8d0f1dd)
C            3.21497615809048        1.18819715784088        0.08741482319672
N            2.28633976484942        0.10200783967767        0.03768041905193
C            2.61445368671101       -1.25211151318205        0.03917278514491
N            1.48180507072174       -2.05538280950623        0.00617428732801
C            0.42006804003438       -1.14030779737851       -0.00877771294273
C            0.89577711435747        0.18022213184947        0.01385966758785
C            0.09654555706878        1.35881692683111       -0.00618046412087
O            0.48414504839963        2.54025570630478       -0.00085921864336
N           -1.29955962554222        1.06837304875726       -0.03658411346897
C           -2.24001019452172        2.18809891200390       -0.05604893870863
C           -1.83090311807141       -0.17586731532334       -0.05328440215318
O           -3.03375241850752       -0.36617877402963       -0.07971901948482
N           -0.94797139541429       -1.29176364377356       -0.03924152303295
C           -1.51654811589822       -2.60822233965613       -0.05924362499882
H            3.75320156016742        1.19983828202360        1.04287160049962
H            3.94430751151039        1.09581825220128       -0.72366108039161
H            2.66698073192820        2.12575597893889       -0.01946813737316
H            3.59944610153992       -1.63344152535750        0.06526680988322
H           -1.66490069049269        3.11351643500006       -0.03433096848025
H           -2.85588296302278        2.15731363911817       -0.95658114878978
H           -2.90519087990850        2.14510046679657        0.80805313435335
H           -1.19637284843216       -3.15434453867569        0.82965966321313
H           -1.18553811620351       -3.13352827910105       -0.95675528501468
H           -2.60019367886469       -2.50099793093566       -0.06507080482306
H            1.73099236743702       -3.16213970825226       -0.00731285168457
25
 energy: 10.346425885439 xtb: 6.6.1 (8d0f1dd)
C            3.21213693730123        1.18754736893622        0.08709061290938
N            2.28675854742453        0.09752478973281        0.03871947402256
C            2.61292233544427       -1.25190029984506        0.04111197955322
N            1.48492544522768       -2.05846409100985        0.00734880605954
C            0.42128552217973       -1.14586119704973       -0.00908522173082
C            0.89665994686002        0.17414493091517        0.01352049965038
C            0.09712868156573        1.35579023163888       -0.00615513361857
O            0.48521381834212        2.53317052868142        0.00063753785074
N           -1.30091553768653        1.07174933651120       -0.03785076754324
C           -2.24008771388396        2.19140745015026       -0.05739086179802
C           -1.83106373101757       -0.17490180901732       -0.05473587680567
O           -3.03174441173401       -0.36893642320490       -0.08176997194676
N           -0.94667134814508       -1.28984979033974       -0.03979443692586
C           -1.52074622649826       -2.60635031908091       -0.05899971163153
H            3.76062352385942        1.19234032661693        1.03570637283091
H            3.93147304882682        1.10819381766470       -0.73366445258338
H            2.65961718646318        2.12453564265679       -0.00447685829460
H            3.60108899120797       -1.62936108112147        0.07084046892627
H           -1.66465443783225        3.11618731887662       -0.03630293177995
H           -2.85645107832012        2.16078630087386       -0.95750674366156
H           -2.90495534922008        2.14958520167235        0.80693811838334
H           -1.20119506339645       -3.15312646039754        0.82930634550371
H           -1.19381140215801       -3.13221439043446       -0.95734095082511
H           -2.60419416852721       -2.49692194373096       -0.06290328073789
H            1.75887115165306       -3.16604683752325       -0.00620911965983
25
 energy: 10.171287552206 xtb: 6.6.1 (8d0f1dd)
C            3.21121456446361        1.18682297237334        0.08679502374229
N            2.28769043869016        0.09436162655202        0.03999486471766
C            2.61072424834893       -1.25109304634665        0.04261745846811
N            1.48463036329285       -2.05725696658237        0.00815408047620
C            0.42072495991325       -1.14656294970331       -0.00950930247546
C            0.89817529772749        0.17213161849595        0.01282474505557
C            0.09762526940038        1.35549122685548       -0.00620069451305
O            0.48662620891698        2.53068868235770        0.00214288523848
N           -1.29991424818865        1.07269591734590       -0.03874913679165
C           -2.23911152955360        2.19156242363134       -0.05810473084298
C           -1.83136057598675       -0.17490276111929       -0.05570699134565
O           -3.03077257916642       -0.36978180633228       -0.08303134786068
N           -0.94585190423709       -1.28904203577629       -0.04033015957510
C           -1.52148684266433       -2.60641301284543       -0.05893536570228
H            3.76605312638351        1.18717095089332        1.03065329231107
H            3.92381585259709        1.11460643836345       -0.73944911261881
H            2.65586462939505        2.12246850083597        0.00397185294175
H            3.60007744222611       -1.62736585055104        0.07494662757731
H           -1.66451335758365        3.11671637014311       -0.03741625854829
H           -2.85574854742061        2.16034791488281       -0.95800835654231
H           -2.90354883569139        2.14968818307653        0.80656019205445
H           -1.20160872338651       -3.15310029833855        0.82903278453485
H           -1.19649151539258       -3.13211240843401       -0.95783336150898
H           -2.60479628527855       -2.49650178854902       -0.06162223368609
H            1.76419721113086       -3.16159129905664       -0.00576285895916
25
 energy: 9.856167674914 xtb: 6.6.1 (8d0f1dd)
C            3.21117635112056        1.18668576698402        0.08660240573259
N            2.28813493973192        0.09352732058885        0.04094648549749
C            2.60977738665644       -1.25094640567228        0.04347671078324
N            1.48372541546935       -2.05660739748436        0.00859959151125
C            0.42015003388884       -1.14619193775334       -0.00987238653550
C            0.89863056470044        0.17218800970528        0.01219216880426
C            0.09781468837150        1.35560871323791       -0.00619288328647
O            0.48722838023325        2.53078275488550        0.00304502036780
N           -1.29916342558975        1.07236215010397       -0.03923574921408
C           -2.23846124775694        2.19102405989394       -0.05837769380265
C           -1.83162061153333       -0.17495015349934       -0.05613539238279
O           -3.03086542392219       -0.36944353493515       -0.08352213263435
N           -0.94588118129107       -1.28895625791409       -0.04071417741769
C           -1.52118651467752       -2.60674822012551       -0.05898755587754
H            3.76912012047480        1.18488026220416        1.02820813794800
H            3.92064223956242        1.11679138504377       -0.74208856762848
H            2.65472859206453        2.12158723769002        0.00750009000574
H            3.59915155925525       -1.62723099575788        0.07712497538236
H           -1.66427634005508        3.11650233949839       -0.03783687010514
H           -2.85532721176960        2.15959230832444       -0.95816203882622
H           -2.90272093316710        2.14908843789223        0.80648082296307
H           -1.20057353521100       -3.15315292534845        0.82882360346357
H           -1.19643942831521       -3.13220399183528       -0.95805457415164
H           -2.60445262889400       -2.49705983751917       -0.06114403876088
H            1.76290287858967       -3.15810048603558       -0.00564205568865
25
 energy: 9.601991967260 xtb: 6.6.1 (8d0f1dd)
C            3.21125691230028        1.18673054661823        0.08640150582881
N            2.28836410123128        0.09330045354556        0.04207155218665
C            2.60932376354074       -1.25114660670805        0.04426193578762
N            1.48294213480589       -2.05662503847878        0.00900599272804
C            0.41980033181297       -1.14590248926648       -0.01030083099524
C            0.89869334237575        0.17256118468067        0.01152183163152
C            0.09789389826501        1.35559243992450       -0.00611924241232
O            0.48746864592007        2.53120522854650        0.00380936884304
N           -1.29875313662249        1.07189417272001       -0.03969955563371
C           -2.23805222897530        2.19062294662139       -0.05859636048221
C           -1.83180535194313       -0.17492825990015       -0.05645698990771
O           -3.03114235832196       -0.36902185443162       -0.08379063238395
N           -0.94608249462558       -1.28902235855479       -0.04113566937521
C           -1.52087684213671       -2.60698921320555       -0.05908271816132
H            3.77195864845873        1.18317625656914        1.02610259097535
H            3.91813158044889        1.11839874848365       -0.74442392279301
H            2.65407469538052        2.12115798728998        0.01041253250571
H            3.59852392447760       -1.62762796974358        0.07912077328926
H           -1.66397032918773        3.11624458505007       -0.03816046605328
H           -2.85515039954790        2.15913387485713       -0.95825036436212
H           -2.90217285486665        2.14871830399843        0.80642038304897
H           -1.19955429039172       -3.15315283285078        0.82861431341347
H           -1.19614062548298       -3.13234240832742       -0.95821380186317
H           -2.60413416310873       -2.49757450275100       -0.06084372572113
H            1.76161776412932       -3.15537459251501       -0.00563460394677
25
 energy: 9.516974711895 xtb: 6.6.1 (8d0f1dd)
C            3.21134412924724        1.18681779728667        0.08627021708768
N            2.28830260826372        0.09350166536200        0.04313389051016
C            2.60942402338654       -1.25147436175578        0.04465290113884
N            1.48270995076062       -2.05714016559930        0.00920548450619
C            0.41985269900285       -1.14587432493171       -0.01067195644317
C            0.89850353216385        0.17282858931776        0.01109725546074
C            0.09785602153710        1.35545922722871       -0.00601465890797
O            0.48729826029238        2.53141878378569        0.00413924142803
N           -1.29884550340773        1.07170438234279       -0.04000066862818
C           -2.23806664021095        2.19063429037265       -0.05869592204227
C           -1.83179557076660       -0.17488957135300       -0.05656650389273
O           -3.03127732331280       -0.36896571576702       -0.08370554412240
N           -0.94620542546231       -1.28915867775062       -0.04147386048881
C           -1.52080176682937       -2.60701746954515       -0.05918471966607
H            3.77353533303469        1.18260984737033        1.02497902667874
H            3.91693155918034        1.11901853676529       -0.74568569370631
H            2.65403056712435        2.12120457732708        0.01176781019272
H            3.59845589945386       -1.62813998430463        0.08031570707795
H           -1.66376555932518        3.11612999004607       -0.03830193404876
H           -2.85527525993033        2.15920119793724       -0.95825981448998
H           -2.90208014075377        2.14878805690975        0.80640201523149
H           -1.19926964149482       -3.15312114735680        0.82850808110154
H           -1.19608423256792       -3.13251489765124       -0.95827858527591
H           -2.60408001205699       -2.49768404659905       -0.06081458872991
H            1.76151716060738       -3.15430797726570       -0.00578328382438
