25
 energy: 0.000000000000 xtb: 6.6.1 (8d0f1dd)
C            3.23720163006194        1.16630919979326        0.08434469647475
N            2.29877817382611        0.07527477071623        0.03981603040599
C            2.58028210190900       -1.21425402444508        0.03006176031096
N            1.43813958087363       -1.93419271955128        0.00098261760884
C            0.39035688448383       -1.05887472636071       -0.00790371836672
C            0.93510056364412        0.21347819449412        0.01709077491437
C            0.09450143893243        1.40504303904423       -0.00410947031874
O            0.49712751527797        2.54126714362870       -0.00342325688240
N           -1.25076640035757        1.06271879480407       -0.03085478223738
C           -2.21907211982101        2.15522099834493       -0.05001256985998
C           -1.81739487048744       -0.20012725993278       -0.04692818574614
O           -2.99983886758376       -0.37846417018721       -0.07008878229737
N           -0.92618586207120       -1.30210215599479       -0.03682761578324
C           -1.46982264913417       -2.64643102187190       -0.06029820460571
H            3.71247264356769        1.21471455160235        1.06488849150277
H            4.00791497605742        1.03430808813993       -0.67357694370751
H            2.69910007168542        2.09770118228144       -0.09130154882931
H            3.56654120610678       -1.63682992603973        0.04233140067262
H           -1.67107961066214        3.09322851271934       -0.02552706933167
H           -2.82428953597071        2.09428624779827       -0.95318082946668
H           -2.87644029173232        2.07745725625962        0.81450067533302
H           -1.17061996399332       -3.19584890659852        0.83242232437030
H           -1.14560257411436       -3.17511610292205       -0.95688275822323
H           -2.55549792440841       -2.55659984320617       -0.07459039797972
H            1.38130855184625       -2.94313852034425       -0.01389874181052
25
 energy: -0.512283248153 xtb: 6.6.1 (8d0f1dd)
C            3.22840100488936        1.17847364185653        0.08578500118769
N            2.29206551915559        0.09199805897783        0.03920481529791
C            2.59560376593542       -1.23416171584721        0.03261172404603
N            1.45969050740905       -1.99714342713125        0.00222391138343
C            0.40362247420690       -1.09197642728335       -0.00807442038094
C            0.91735956934962        0.20709067485795        0.01611190872595
C            0.09329399667671        1.39660477294799       -0.00495231766845
O            0.49232298838675        2.56272060281854       -0.00278446978451
N           -1.26945833452926        1.06477278776718       -0.03244218188762
C           -2.22972290616505        2.16769108751080       -0.05164796823424
C           -1.82555152855657       -0.18936022723335       -0.04877091933742
O           -3.02318384304993       -0.36666596734236       -0.07281425861530
N           -0.93637720539503       -1.30046392534698       -0.03755551721565
C           -1.48577903771122       -2.63108700712289       -0.05999597741242
H            3.72342252383500        1.21284281883762        1.06032833868061
H            3.98767824934386        1.04924528881593       -0.68744009630688
H            2.69235039133747        2.11295719977488       -0.07252717556964
H            3.57585307886789       -1.63933777764873        0.04850476905393
H           -1.67428681212210        3.10358335701324       -0.02800604589241
H           -2.83919693043508        2.11889323293344       -0.95413033455511
H           -2.89060326841332        2.10325766130241        0.81271393983069
H           -1.17395135614592       -3.17564224433100        0.83205263356626
H           -1.15278516872794       -3.15478827622542       -0.95691268335923
H           -2.57056811839983       -2.53499501170512       -0.07190242316711
H            1.52201510819382       -3.06548057602463       -0.01254635623830
25
 energy: 14.928585323441 xtb: 6.6.1 (8d0f1dd)
C            3.21621037323747        1.18529124705172        0.08678825342480
N            2.27822377021060        0.10473086570620        0.03806698435190
C            2.60216722666202       -1.24855367718506        0.03763777233313
N            1.48175605440665       -2.07013677524324        0.00475226937728
C            0.41522952649923       -1.13684343876930       -0.00850560105234
C            0.89163754994404        0.18889410432223        0.01404677722967
C            0.09071182162345        1.37531771913618       -0.00596210009814
O            0.48187888688764        2.55871275792743       -0.00105547040338
N           -1.29649719617162        1.07490043197670       -0.03509327601153
C           -2.24379456444013        2.19048344900599       -0.05422193236829
C           -1.83259778246077       -0.16935390287612       -0.05151981913723
O           -3.03730475343719       -0.35141354158897       -0.07690361496717
N           -0.95068443348308       -1.28933337466174       -0.03863242340173
C           -1.50870032964272       -2.60753389643430       -0.05954039101616
H            3.73972978215657        1.20333904840366        1.05018222520633
H            3.95834956834142        1.07109340721223       -0.70900141243272
H            2.68295056529847        2.12696410487493       -0.04229557710470
H            3.58242329003264       -1.62989628350148        0.05914200348855
H           -1.67839152242524        3.12228253594463       -0.03179679294006
H           -2.85800778078341        2.15277989635528       -0.95546882455684
H           -2.90802668649501        2.13905044799098        0.80993849330031
H           -1.18286653619051       -3.15015918159953        0.82961191968374
H           -1.16814226903343       -3.12916152291330       -0.95565606114780
H           -2.59247914880604       -2.51063135103634       -0.06775377173249
H            1.74843925600518       -3.21179446792675       -0.00972573387786
25
 energy: 30.516235326846 xtb: 6.6.1 (8d0f1dd)
C            3.20673504099795        1.18628257603758        0.08656143915713
N            2.27220456223155        0.10266162437015        0.03870795150143
C            2.60273496149532       -1.25514716230110        0.04206507945682
N            1.49867487612754       -2.10875094168831        0.00714853782990
C            0.42243544494119       -1.16361740083947       -0.00914803466910
C            0.88169589705049        0.17187345306240        0.01336440212399
C            0.08862435446144        1.36208015824491       -0.00589412336851
O            0.47767688373061        2.54479018765690        0.00096691894627
N           -1.31183458363929        1.08707694368710       -0.03748868266124
C           -2.25318673239768        2.20815317535191       -0.05695225951177
C           -1.83637950939184       -0.15785313591843       -0.05405286129533
O           -3.04004270839161       -0.34884430290758       -0.08080620823710
N           -0.95470000130740       -1.27949217682415       -0.03964901331239
C           -1.52477969744954       -2.59257006291330       -0.05914281285842
H            3.75258558257824        1.19087152098380        1.03814832156442
H            3.93078963435118        1.09359838762170       -0.72980504980030
H            2.67061070278238        2.13258532577921       -0.01257379103555
H            3.59058198771780       -1.61973471399599        0.06952527456092
H           -1.68460818660805        3.13792606205401       -0.03569150305691
H           -2.87082095599930        2.17592247907877       -0.95660232803804
H           -2.91945508948201        2.16409117674907        0.80664276912399
H           -1.19346789649087       -3.13440645711662        0.82826793192262
H           -1.18531075152625       -3.11337079984693       -0.95598108723291
H           -2.60834557353232       -2.49392111963656       -0.06352925673227
H            1.89979642568663       -3.30117619451699       -0.00704771823035
25
 energy: 39.119105135034 xtb: 6.6.1 (8d0f1dd)
C            3.20365154894136        1.18467631857554        0.08599832579347
N            2.27082662678185        0.09812571743039        0.04048354710135
C            2.59688080271569       -1.25644262101527        0.04574037603519
N            1.50250228910117       -2.11880149125139        0.00938680378613
C            0.42205797335061       -1.16894881178904       -0.01027485299423
C            0.87995835104026        0.16630910128723        0.01260790834317
C            0.08690758697321        1.36064349217944       -0.00569072469911
O            0.47661929145015        2.53883794754756        0.00265594823672
N           -1.31738045867965        1.09606631190151       -0.03893062254743
C           -2.25743409201774        2.21633487935241       -0.05825540295563
C           -1.84012489377503       -0.15170691223670       -0.05569851742902
O           -3.04110950331468       -0.34855330454878       -0.08274916216211
N           -0.95619685027060       -1.27123203135076       -0.04074558021656
C           -1.53030130831690       -2.58590071216372       -0.05902222846984
H            3.76001197839039        1.18253173441241        1.02974742754723
H            3.91642115990584        1.10498974191683       -0.74039721582805
H            2.66509433247182        2.13145089889636        0.00229705133443
H            3.58943530875866       -1.61337638643330        0.07640296836708
H           -1.68934352857158        3.14591791702445       -0.03768207330302
H           -2.87575084802451        2.18343179682275       -0.95743017880535
H           -2.92328851771155        2.17260421260707        0.80571742268173
H           -1.19677358786353       -3.12727534719177        0.82745821394995
H           -1.19276813279160       -3.10636932831414       -0.95650571983700
H           -2.61378738944278       -2.48895397834946       -0.06114423402291
H            1.97610652883531       -3.35533054313761       -0.00693558375889
25
 energy: 44.883116064672 xtb: 6.6.1 (8d0f1dd)
C            3.19961146100412        1.18123946379695        0.08513082070791
N            2.26048382128913        0.09768507012431        0.04250911172452
C            2.57509763932094       -1.25512718654984        0.05187776821156
N            1.49984823228076       -2.13618443178461        0.01628529577378
C            0.41567541186917       -1.17285253173262       -0.01204130977800
C            0.86927680592728        0.16579379243035        0.01075290473103
C            0.08293910440785        1.36358715097345       -0.00527049015489
O            0.47042626390008        2.53913083135742        0.00324849548547
N           -1.32756631877469        1.11111813674220       -0.04013200067289
C           -2.26394287157158        2.22988778851088       -0.05909732745556
C           -1.84728654661818       -0.13860722640638       -0.05706889222138
O           -3.04640446496837       -0.34059650608101       -0.08377856672949
N           -0.96488786731028       -1.25509182395404       -0.04260777869555
C           -1.53761059608341       -2.57382712302213       -0.05904043084909
H            3.76472870921489        1.17206492564585        1.02159340276648
H            3.90284950072376        1.10873242274926       -0.74828620106965
H            2.66593792696908        2.13181909704205        0.01307513978613
H            3.57285336541143       -1.60309287419128        0.08153257131477
H           -1.69456936538680        3.15829769760923       -0.03902757860269
H           -2.88208627505428        2.19485386186712       -0.95823445935553
H           -2.92852657005246        2.18481973807725        0.80573202469675
H           -1.19701954612624       -3.11410367060091        0.82530177990359
H           -1.19665957811785       -3.09388887990950       -0.95536526393078
H           -2.62103467120280       -2.48525623012457       -0.05936489294298
H            2.14008109688465       -3.48137289039742       -0.01069022649624
25
 energy: 38.590056539055 xtb: 6.6.1 (8d0f1dd)
C            3.19641170614467        1.17483047226712        0.08478320373338
N            2.24333025288918        0.09691542941482        0.04445404454632
C            2.52900155780467       -1.25091010043046        0.05544019034347
N            1.47983163321254       -2.14069397132011        0.02272438681197
C            0.40051592439045       -1.16022453046044       -0.01296598406895
C            0.85591983661683        0.17681565721324        0.00866072084892
C            0.07752363567045        1.37695505697442       -0.00518251138674
O            0.46003772259880        2.54597974825258        0.00306252239724
N           -1.33469977305208        1.13005259433062       -0.04079100438570
C           -2.26915868822723        2.24370663500602       -0.05967734202711
C           -1.85428660610466       -0.12476374529324       -0.05737975048213
O           -3.05167870170770       -0.32874026724056       -0.08416699614539
N           -0.97698237139489       -1.23250740587993       -0.04310250694531
C           -1.54289789102286       -2.56008536556247       -0.05868731823800
H            3.76571306047247        1.16186965295408        1.01599895703235
H            3.89343909456882        1.10581389189197       -0.75183580428344
H            2.67155130163491        2.13160719031520        0.01909325445812
H            3.53480410667516       -1.59677527743223        0.08311163734131
H           -1.69927399609048        3.17091420089097       -0.03996726767049
H           -2.88624213788796        2.20417736300590       -0.95894544934317
H           -2.93211948338921        2.19476234588431        0.80578470418047
H           -1.19486552828651       -3.10054397290043        0.82237805781652
H           -1.19648957652511       -3.08067267361400       -0.95246189508828
H           -2.62644372887471       -2.48306901007351       -0.05827140541636
H            2.36927331782067       -3.66638531602185       -0.01502254788171
25
 energy: 25.906917554262 xtb: 6.6.1 (8d0f1dd)
C            3.19904197855747        1.16625032886428        0.08506902353308
N            2.22775599757002        0.08475120594347        0.04767175100686
C            2.43728144778074       -1.23809122233347        0.05134396101193
N            1.40171748473094       -2.05370472214444        0.02326842335334
C            0.36237867433504       -1.08043994981535       -0.00865421603430
C            0.85725999143394        0.22110979688762        0.00740334899448
C            0.06726024147070        1.41817233173122       -0.00739971642376
O            0.44834357957942        2.56108912667344        0.00260101270682
N           -1.31707793911227        1.14249059793514       -0.04020184018300
C           -2.26371355456208        2.24460734162790       -0.05913122148604
C           -1.85619113033297       -0.12966468706946       -0.05606011941485
O           -3.05158422321651       -0.31456255408166       -0.08333368252624
N           -0.98600077126961       -1.21020118914108       -0.03973563292289
C           -1.53759677656355       -2.55547948084364       -0.05795751065103
H            3.75919197462234        1.15842298404992        1.01821050989570
H            3.89834105336527        1.09172185948725       -0.74524660577963
H            2.68074601066913        2.12814626794585        0.01105913796806
H            3.46358290579175       -1.60696394257045        0.07788002134360
H           -1.70157360080843        3.17513287519843       -0.03945907613756
H           -2.88124373256664        2.20098030978494       -0.95771035050142
H           -2.92779515607412        2.19125171111938        0.80500839687836
H           -1.18846315485459       -3.09587234562628        0.82021173900887
H           -1.18753511733868       -3.07555386859653       -0.94870976081676
H           -2.62225433269674       -2.48485347535676       -0.05929423909072
H            2.63034281742565       -3.94971069749766       -0.01979945758562
25
 energy: 22.035593828060 xtb: 6.6.1 (8d0f1dd)
C            3.20408890120280        1.17061549467606        0.08437753683528
N            2.23211788798184        0.08587540235754        0.04735233243171
C            2.40296341315590       -1.23066873476012        0.05007702161385
N            1.32951800864843       -1.97323891427874        0.02044623420834
C            0.33699147276604       -1.01677349602767       -0.00729487230297
C            0.86632250420569        0.25939115033268        0.00783587711766
C            0.05495741358275        1.45199604865642       -0.00720328942119
O            0.44299284704817        2.59123456872978        0.00352647855739
N           -1.30578915314826        1.14550862410672       -0.03908865945443
C           -2.26324448030789        2.24304426242591       -0.05819638030849
C           -1.86236109147438       -0.13531061461747       -0.05516258258388
O           -3.05975218901573       -0.29343593330523       -0.08227551047490
N           -0.99705868460062       -1.20262645160373       -0.03880113916026
C           -1.53140713557599       -2.55566497256423       -0.05806959035770
H            3.75272233890573        1.16136823794467        1.02510280871465
H            3.90922901015042        1.08029578517750       -0.73912039661244
H            2.68452963545493        2.12950400995344       -0.00247100385338
H            3.42900593884697       -1.61904065779735        0.07384147146337
H           -1.70741333432755        3.17798918256427       -0.03786581771546
H           -2.87949882441654        2.19561460063740       -0.95726375512333
H           -2.92668925240258        2.18468533694275        0.80586911693230
H           -1.18040584256889       -3.09175784104557        0.82123442289294
H           -1.17685758602100       -3.07090181803863       -0.94891842196911
H           -2.61618767430979       -2.48740145633571       -0.06090470775859
H            2.77344054415571       -4.21127321195866       -0.01999327752409
25
 energy: 21.063529104992 xtb: 6.6.1 (8d0f1dd)
C            3.20714896402691        1.18057034441482        0.08448709655099
N            2.23525172506344        0.10260265133801        0.04533913948003
C            2.39737054994473       -1.22603891677108        0.04743349894289
N            1.27329610795203       -1.92255313947845        0.01633580961234
C            0.32397713524925       -0.97097760044909       -0.00550331884756
C            0.87097959009984        0.29753021402513        0.00897814884549
C            0.04185918296290        1.48196472632727       -0.00768425438917
O            0.43463116525966        2.62832097618031        0.00342189557958
N           -1.30458491195432        1.15296729021226       -0.03851619943417
C           -2.26885940629776        2.24692641901923       -0.05729064225256
C           -1.87133043541784       -0.13096252214753       -0.05454255903477
O           -3.07137693877242       -0.26986106003059       -0.08124518116775
N           -1.00858335936440       -1.19449400482679       -0.03799521563333
C           -1.52365670765094       -2.55083172307572       -0.05795802989848
H            3.74737739329318        1.16886447293402        1.03180161632966
H            3.92027724338765        1.07297326814684       -0.73175754302012
H            2.69088247332802        2.13722474997665       -0.01373172290567
H            3.40579297662266       -1.62954079995696        0.06909431554777
H           -1.71505604224085        3.18344555896519       -0.03635841494521
H           -2.88151415215952        2.19256461660824       -0.95750219616044
H           -2.92913897049571        2.18065036346519        0.80769485965035
H           -1.17106199790505       -3.08585387209628        0.82173704425205
H           -1.16470520833398       -3.06431347320866       -0.94821618084690
H           -2.60885293472720       -2.48953640101673       -0.06246122557733
H            2.88209122606590       -4.50261353638323       -0.01852684453041
25
 energy: 21.160768266205 xtb: 6.6.1 (8d0f1dd)
C            3.20729030352719        1.18760964966974        0.08446495528935
N            2.23133615760036        0.12064041368883        0.04393790277856
C            2.40520483074780       -1.21720649750187        0.04369418273727
N            1.25668833232214       -1.89529379665369        0.01401856470702
C            0.32242482090336       -0.94647236748683       -0.00483642737696
C            0.87143605793259        0.32326806096731        0.01221095124215
C            0.03528790877295        1.49893629275710       -0.00628262162238
O            0.42878989604999        2.65071054244964        0.00208112301190
N           -1.30644471060502        1.15805746456217       -0.03744396293896
C           -2.27359413531045        2.24996766006506       -0.05671148238533
C           -1.87620971354821       -0.12467606939817       -0.05381495299639
O           -3.07732307858849       -0.25884424453267       -0.08040836156766
N           -1.01238674698948       -1.18902060811443       -0.03830865132308
C           -1.51654404473338       -2.54509450641443       -0.05826149132228
H            3.74291526733039        1.17746092372019        1.03599169985707
H            3.92890086995298        1.06916802504011       -0.72501626265056
H            2.69683994693982        2.14513966696315       -0.02223917178606
H            3.39750674987243       -1.62895820198295        0.06423233387578
H           -1.71919132927732        3.18582839357158       -0.03516162521925
H           -2.88376713430018        2.19224385519662       -0.95765894978070
H           -2.93215919343534        2.17958632781748        0.80850367254219
H           -1.16538506524034       -3.08173029257222        0.82192209945789
H           -1.15693332113991       -3.06035846849195       -0.94798852492787
H           -2.60269396740023       -2.48934544802906       -0.06383081600762
H            2.91022596655255       -4.71258817311870       -0.01606028744683
25
 energy: 20.914747278595 xtb: 6.6.1 (8d0f1dd)
C            3.20811432944683        1.19389357853107        0.08480304134975
N            2.22670531175119        0.13718727819546        0.04404306511821
C            2.41803218702605       -1.20319457736373        0.04175965540941
N            1.26863410637122       -1.88237781031453        0.01137874205169
C            0.32623154971092       -0.94009637186971       -0.00488027866090
C            0.87018463868768        0.33450016400060        0.01506888201210
C            0.03404491071633        1.50443982069479       -0.00605958293752
O            0.42515109764277        2.65932920870127        0.00060422459451
N           -1.30883879158116        1.15958009768100       -0.03711187142023
C           -2.27575880201782        2.25126887726740       -0.05650354952278
C           -1.87680056047908       -0.12013491779053       -0.05340380908892
O           -3.07787941596371       -0.25856767355439       -0.07971739322809
N           -1.01080453953247       -1.18765261316107       -0.03866943447725
C           -1.51294499186963       -2.54177550509794       -0.05821155324725
H            3.74252979689131        1.18333948055061        1.03819227091187
H            3.93322937084164        1.06927617290506       -0.72206475655757
H            2.70287661530780        2.15371532200741       -0.02546264624698
H            3.40176797286933       -1.62046174931091        0.06309774792286
H           -1.72062373247709        3.18654010641832       -0.03498716558070
H           -2.88516666355818        2.19274464961508       -0.95760223642052
H           -2.93357271374711        2.17996606298636        0.80889442917633
H           -1.16370050136869       -3.08045347011925        0.82231215179600
H           -1.15448709799725       -3.05933268395333       -0.94775093537605
H           -2.59995928817111       -2.48857454562869       -0.06413488017824
H            2.87524987943642       -4.83413029921831       -0.01656022125245
25
 energy: 20.340708818556 xtb: 6.6.1 (8d0f1dd)
C            3.21063450158623        1.20241670881689        0.08494334376060
N            2.22365821801182        0.15637834264943        0.04456252519959
C            2.43522757308274       -1.18183765816912        0.04080214310822
N            1.30163079000009       -1.87367274028008        0.01033372723764
C            0.33425135533722       -0.94507369886669       -0.00496157939252
C            0.86793749288602        0.33732660934077        0.01744235194860
C            0.03625305554847        1.50388972905869       -0.00539538240271
O            0.42232825787616        2.66105892209876        0.00020180143886
N           -1.31172693188331        1.15962894675528       -0.03692157305902
C           -2.27696992705349        2.25154635005418       -0.05653911567653
C           -1.87361024419205       -0.11586678800702       -0.05341664211345
O           -3.07433764465457       -0.26476355624076       -0.07979704813475
N           -1.00462263265369       -1.18839635902472       -0.03892451757682
C           -1.51035049768813       -2.53994400976061       -0.05830345268010
H            3.74436652005006        1.18869513099408        1.03891185497230
H            3.93517217067860        1.07288158914603       -0.72187226084245
H            2.70903874661479        2.16395686547606       -0.02616233295577
H            3.41316786837431       -1.60814043217466        0.06262162369805
H           -1.72120251653624        3.18643029755694       -0.03487016327321
H           -2.88617629454232        2.19358312407132       -0.95782942113988
H           -2.93486748475565        2.18060560919038        0.80883242054536
H           -1.16306026477138       -3.08069840292005        0.82239863927152
H           -1.15355542345824       -3.05959126932499       -0.94791929728664
H           -2.59796585628930       -2.48729878357112       -0.06436566281771
H            2.78699383636805       -4.92408592469692       -0.01673808568188
25
 energy: 20.042132565387 xtb: 6.6.1 (8d0f1dd)
C            3.21312803806677        1.20861381651599        0.08545073316018
N            2.22554710351830        0.16519874188031        0.04494534942581
C            2.44365322939333       -1.16819726818781        0.04187948723207
N            1.32885955822547       -1.87328624061976        0.01034687638757
C            0.34058970247715       -0.95570015167735       -0.00543145389334
C            0.86642327892925        0.33149389004141        0.01646174526117
C            0.03949671088879        1.49951199640030       -0.00603583533900
O            0.42164727422806        2.65678933352510       -0.00001632215288
N           -1.31317158729957        1.15900574050030       -0.03731499999155
C           -2.27685476434078        2.25098014530097       -0.05666238934828
C           -1.86921183981122       -0.11481933686065       -0.05341771411280
O           -3.06965441344049       -0.27178905971214       -0.07963026751263
N           -0.99850133652287       -1.18977135043835       -0.03881859788001
C           -1.51016209401516       -2.54056888247087       -0.05812079205320
H            3.74660605465393        1.19085868498142        1.03856155319947
H            3.93433461930649        1.07764033841557       -0.72289129213424
H            2.71172351958787        2.17012581137672       -0.02399734256429
H            3.42134414613832       -1.60107474470270        0.06391988915654
H           -1.72077950790278        3.18583552594888       -0.03528296104730
H           -2.88675394648613        2.19385668051541       -0.95777733257507
H           -2.93489835726307        2.18117073544522        0.80894061966019
H           -1.16323419058834       -3.08161755606489        0.82244969199213
H           -1.15446729341533       -3.06056885474769       -0.94793715673046
H           -2.59758342041781       -2.48623771392543       -0.06381653235096
H            2.71413418402602       -4.93842167926796       -0.01877105964186
25
 energy: 19.984677748296 xtb: 6.6.1 (8d0f1dd)
C            3.21383060286302        1.21028861585384        0.08524177726539
N            2.22814222889354        0.16499174230010        0.04503545105728
C            2.44384719977828       -1.16552710647237        0.04300939953593
N            1.33643760334120       -1.87585419588772        0.01206625624289
C            0.34235209541874       -0.96101652261034       -0.00523536658578
C            0.86584019168597        0.32684253941065        0.01535641797842
C            0.04086612493416        1.49710810093833       -0.00557333244300
O            0.42219509213748        2.65374378727913        0.00106341302478
N           -1.31330589548109        1.15895140751315       -0.03730300294066
C           -2.27646719108903        2.25071507147759       -0.05678986114337
C           -1.86751462139633       -0.11542292299449       -0.05357528201621
O           -3.06793325304282       -0.27382284575810       -0.08013852793986
N           -0.99658345754209       -1.18995788179070       -0.03853120548830
C           -1.51084350817168       -2.54148223834074       -0.05821195074998
H            3.74769455322653        1.19063464182197        1.03743185438368
H            3.93287712869202        1.07943813306438       -0.72440314141924
H            2.71084862363588        2.17068905272382       -0.02289770049382
H            3.42318900251230       -1.59940423428711        0.06414771573712
H           -1.72042506126240        3.18567048146195       -0.03520460315140
H           -2.88633717301097        2.19395630150726       -0.95806656411283
H           -2.93495652951261        2.18123976132407        0.80862116718630
H           -1.16361509612827       -3.08197459344136        0.82221763456328
H           -1.15478450443450       -3.06069144276628       -0.94809087190681
H           -2.59791676419253       -2.48614345289276       -0.06399770749811
H            2.69477727608138       -4.92394359726224       -0.01913807293845
25
 energy: 19.974870011378 xtb: 6.6.1 (8d0f1dd)
C            3.21393985156549        1.21045924828230        0.08552358170387
N            2.22924660473626        0.16399790720621        0.04489471947872
C            2.44300012930509       -1.16558887143307        0.04347833328776
N            1.33665034510039       -1.87674741150212        0.01228933516423
C            0.34242627265088       -0.96191315117574       -0.00550488611703
C            0.86558085614267        0.32567323939021        0.01426093088120
C            0.04102747348107        1.49671006691112       -0.00625729797756
O            0.42247956857617        2.65305783220018        0.00063590763973
N           -1.31322383063503        1.15904554174975       -0.03755854169045
C           -2.27635384805499        2.25061078403963       -0.05675308841468
C           -1.86731903338615       -0.11599959513185       -0.05349763140730
O           -3.06776961105648       -0.27382526988135       -0.07980378214663
N           -0.99651513237388       -1.18970273875051       -0.03847686111635
C           -1.51119526508223       -2.54185278440118       -0.05805583260951
H            3.74764683699141        1.19028609706972        1.03757966156623
H            3.93290257855341        1.07982953597716       -0.72408735121481
H            2.71046502286091        2.17041717522417       -0.02233869556095
H            3.42312721362822       -1.59922958971478        0.06471275403387
H           -1.72032057896796        3.18559561810939       -0.03542083989527
H           -2.88655932445621        2.19383741328035       -0.95781839596413
H           -2.93460942882652        2.18128789721693        0.80886470603591
H           -1.16354711339401       -3.08192425957739        0.82231367331126
H           -1.15515171869186       -3.06072323522571       -0.94798071127283
H           -2.59811046534161       -2.48618100687304       -0.06360554690167
H            2.69439726461116       -4.91809184081836       -0.02036024466631
25
 energy: 19.971615139746 xtb: 6.6.1 (8d0f1dd)
C            3.21388440817678        1.21047543176592        0.08507317389442
N            2.22972237034360        0.16346801852810        0.04484549831060
C            2.44251690350793       -1.16570436389859        0.04381587088123
N            1.33614960558651       -1.87695894153260        0.01350586790294
C            0.34238400838078       -0.96185209344076       -0.00511622016179
C            0.86533168539635        0.32553439662011        0.01437085503359
C            0.04096769262867        1.49682748805081       -0.00542436629242
O            0.42263321125574        2.65305433439772        0.00157465605749
N           -1.31314970605613        1.15921790401516       -0.03727477674893
C           -2.27631544034709        2.25061179101223       -0.05681709471181
C           -1.86733923565621       -0.11639100516996       -0.05353738001517
O           -3.06783025360742       -0.27344857183284       -0.08027129855894
N           -0.99665833024144       -1.18940543514354       -0.03826751841463
C           -1.51123425278998       -2.54201379738199       -0.05822866915302
H            3.74802013593002        1.19032046009709        1.03690126690599
H            3.93260533327486        1.07983594481348       -0.72488688623777
H            2.71004519366253        2.17014377227587       -0.02261368027126
H            3.42289122287116       -1.59927338257762        0.06452786270842
H           -1.72036582685643        3.18564681398020       -0.03517194275753
H           -2.88613021890438        2.19390757245401       -0.95815191102642
H           -2.93496925719843        2.18122051511296        0.80848808366567
H           -1.16365737029724       -3.08194810638705        0.82213993417396
H           -1.15475574752103       -3.06050110885012       -0.94814455245143
H           -2.59808454068202       -2.48629588261119       -0.06407770322964
H            2.69555307707909       -4.91744315212538       -0.02022517335626
