  25
        -42.21851026
 C          2.9328178654        1.3730011094        0.0062389184
 N          2.1319698160        0.1818360835       -0.0017475322
 C          2.5465583298       -1.0745393867        0.0015389186
 N          1.4808948243       -1.9069359085       -0.0000062149
 C          0.3513554399       -1.1436727553       -0.0043244032
 C          0.7649157555        0.1764404426       -0.0059493575
 C         -0.2041402423        1.2466982282       -0.0023018834
 O         -1.5175194057        0.7694392388        0.0172234974
 N          0.1240754798        2.4529936294       -0.0090110190
 C         -0.7925973586        3.5450962428       -0.0151509925
 C         -1.9386900710       -0.5056655042        0.0082490070
 O         -3.0939501442       -0.7729916135        0.0147096269
 N         -0.9445350051       -1.5174944428       -0.0025818415
 C         -1.3623618037       -2.9054901434       -0.0086466134
 H          2.7040756381        1.9607379139        0.8957268914
 H          3.9893317450        1.1145850631       -0.0099628994
 H          2.6811343241        1.9876328832       -0.8582511699
 H          3.5688121021       -1.3980075618        0.0057314705
 H         -0.4333117380        4.2764319237        0.7077407838
 H         -0.7579967082        4.0052504531       -0.9991361207
 H         -1.8134544623        3.2610718065        0.2086059904
 H         -0.9845820148       -3.4239044095        0.8724754376
 H         -1.0222505165       -3.4048965557       -0.9160880776
 H         -2.4503204897       -2.9163662948        0.0139833725
 H          1.5322822870       -2.9162780812        0.0002076718
