25
 energy: -42.152244081534 gnorm: 0.004733838897 xtb: 6.6.1 (8d0f1dd)
C            3.22361774996217        1.13302745679506        0.10899845607983
N            2.22487750594809        0.09930085989107        0.07340590886020
C            2.44722911142684       -1.20206233859736        0.03729311291323
N            1.27224362717832       -1.86704875942497        0.04803881608186
C            0.25362968333120       -0.95399523092289        0.09901984590605
C            0.86210060181422        0.31256461320057        0.10298433406614
C            0.16739501572585        1.56550885821080       -0.11716441949200
O            0.67398494957298        2.64725674993547       -0.30668055827720
N           -1.22874198379146        1.33502006289482       -0.16050133322959
C           -2.08655220111718        2.17976389643217       -0.57177826488230
C           -1.93555510974816       -0.14646723147162        0.68209171009637
O           -3.11784291995285       -0.19543231448874        0.43838529735216
N           -1.05002870367945       -1.19725669565978        0.14265193994968
C           -1.64220520017026       -2.46568757856943       -0.20930513917045
H            3.49565924517787        1.35573325578864        1.14285457018430
H            4.11337291735825        0.81432030457655       -0.43017964728815
H            2.81755915252514        2.04022084116093       -0.33840567242411
H            3.41214954466545       -1.66879547034446        0.00076374954783
H           -1.81093012301720        3.16455390724808       -0.92743159258379
H           -3.12465949779292        1.86908826156352       -0.54575020444776
H           -1.53055277623944        0.20013445835454        1.65180335757162
H           -1.52929658733244       -3.20053014633858        0.59098142551471
H           -1.20582807934169       -2.84751807901922       -1.13194796161132
H           -2.70668143007012       -2.28261653810795       -0.36305152063069
H            1.16548702166674       -2.87084460150719        0.01409540781440
