  72
        -99.27221337
 N         -1.6423756984        2.7569890028        2.3669477196
 C         -1.6611010777        1.9908315292        1.3814013888
 C         -2.8206468140        1.8580017459        0.4313153007
 C         -3.3133975222        0.4181792031        0.4396922359
 C         -4.2157959495       -0.0190441287       -0.5313639064
 C         -4.7353015171       -1.3037663678       -0.5114225884
 O         -5.6213823872       -1.8000311303       -1.3962595782
 C         -6.1452559424       -0.9620058262       -2.3993379682
 C         -4.3352097562       -2.2060416304        0.5136042707
 O         -4.8942749276       -3.4277818188        0.4600971390
 C         -4.6290701485       -4.3526679102        1.4899448139
 C         -3.4328836674       -1.7660689025        1.4706155706
 C         -2.9353236033       -0.4716979245        1.4356844647
 C         -2.2717365371        2.2364905592       -0.9690229802
 C         -1.2770744055        1.2211965299       -1.5473862672
 C          0.0822287800        1.3414289050       -0.9738768158
 N          0.9283705545        0.3559541379       -0.8151815796
 C          2.2925406804        0.6000488286       -0.4078768710
 C          3.2308752780        0.7016079284       -1.6294766899
 C          4.6419173964        0.4333127211       -1.2003100790
 C          5.5870092916        1.4257305422       -0.9957359856
 C          6.8594460914        1.1411903633       -0.5315755951
 C          7.2426364181       -0.1786545025       -0.2293279099
 O          8.4354873386       -0.5597397406        0.2457226232
 C          9.4475014933        0.3999598084        0.4481825710
 C          6.2618532161       -1.1137089877       -0.4661669580
 O          2.9585813447       -2.1735188328        0.4639547261
 C          3.4933980953       -3.0189571033        1.3519447375
 C          5.0239107730       -0.8946522576       -0.9333951829
 C          0.5821813009       -1.0183661392       -1.0929755712
 C         -4.0271122002        2.7774467128        0.7878868597
 C         -4.6293127946        2.4084796887        2.1414894289
 C         -3.6846870999        4.2647978863        0.7664671674
 H         -4.5338083523        0.6604760763       -1.3046461544
 H         -6.6522922238       -0.0921097809       -1.9711858468
 H         -6.8687897789       -1.5701563489       -2.9386725062
 H         -5.3660843466       -0.6293846222       -3.0927477229
 H         -4.9285827154       -3.9598666767        2.4660108324
 H         -5.2273523954       -5.2307404536        1.2547719128
 H         -3.5713348350       -4.6317638879        1.5167087960
 H         -3.1187749225       -2.4235309853        2.2646272231
 H         -2.2640856463       -0.1584397681        2.2198881591
 H         -3.1122546380        2.3300958157       -1.6556573440
 H         -1.7917229538        3.2132875817       -0.9052767234
 H         -1.6726934432        0.2108444919       -1.4366020367
 H         -1.1903781602        1.4168522956       -2.6242996369
 H         -0.8044319045        1.3602504018        1.0808445915
 H          0.4466012093        2.3379568684       -0.7632727430
 H          2.6198690271       -0.2486668108        0.2053243830
 H          2.3494216879        1.5189938924        0.1785563548
 H          3.1481328917        1.6872140493       -2.0903042090
 H          2.9344590520       -0.0511868493       -2.3609439709
 H          5.3311457635        2.4550433767       -1.2034966404
 H          7.5682387977        1.9427545594       -0.3925739196
 H          9.1416543423        1.1626223403        1.1710096855
 H          9.7362368285        0.8800409782       -0.4925029688
 H         10.2968509913       -0.1522741353        0.8453282427
 H          4.4704809569       -2.6545088182        1.7225514391
 H          2.8368661872       -3.1551813015        2.2323479573
 H          3.6622119449       -4.0192468371        0.9111161847
 H          4.3012170763       -1.6920326932       -1.0415393881
 H          0.5004736884       -1.1911347032       -2.1672658539
 H         -0.3709542462       -1.2724020654       -0.6282351495
 H          1.3565245398       -1.6667323948       -0.6775202091
 H         -4.7889565753        2.5941240645        0.0210609484
 H         -3.9098075561        2.5935633598        2.9329454296
 H         -4.9258413822        1.3626974369        2.1694546165
 H         -5.5099183257        3.0178299526        2.3266590686
 H         -2.8839071481        4.4765944093        1.4680866563
 H         -3.3960424289        4.6030228041       -0.2251329702
 H         -4.5596379842        4.8345821515        1.0679879267
 H         -0.8000973516        2.7900641017        2.9323241951
