72
 energy: -99.659504278934 xtb: 6.6.1 (8d0f1dd)
N           -1.53574008928057        3.00029531210008        2.26654568082203
C           -1.60475236508865        2.35172488289954        1.19551440419021
C           -2.83989073546018        2.24552933456313        0.34764217600777
C           -3.36566997018673        0.81537672777423        0.37217776613712
C           -4.28201541232567        0.40889798593144       -0.59721290487613
C           -4.75684364488773       -0.88696679237413       -0.62546202829899
O           -5.64177393454853       -1.37898312291655       -1.54202675662851
C           -6.15353355321068       -0.51256197409585       -2.51920162067934
C           -4.32246958206897       -1.81068066517280        0.35078096552089
O           -4.84849991992912       -3.06370846342628        0.24350342406183
C           -4.52681278678392       -4.00176068986428        1.23757951031945
C           -3.42040214300880       -1.39945099755575        1.31255184491383
C           -2.94372475242554       -0.09452461590999        1.31766496711999
C           -2.41804501403944        2.52506891926165       -1.05834854973837
C           -1.35058876655181        0.52798293696649       -1.95490359212085
C           -0.06703674125232        0.60659785119124       -1.48144349911182
N            0.59634335411876       -0.31125859319607       -0.69915797200943
C            1.97429212918950       -0.10715815646372       -0.32813785531694
C            2.95176639280492       -0.76107898966893       -1.32109698627188
C            4.37102829803781       -0.58012052438565       -0.87932643986696
C            5.04385120740918        0.60003046589795       -1.12715739513927
C            6.34355987962845        0.78120995666920       -0.68038820189161
C            6.99074975491927       -0.21686439099904        0.02520542796959
O            8.26036274071993       -0.14301804296015        0.51510121917487
C            9.00303333290815        1.02568337559527        0.29499001753075
C            6.31329254037566       -1.42868910236644        0.28836110848781
O            7.02826117801893       -2.36055097989010        0.97892220103674
C            6.43909088047039       -3.60640681501321        1.24191700630749
C            5.01483464605336       -1.58746169770169       -0.16198695598218
C           -0.01654326670692       -1.55625751249253       -0.34665174416605
C           -4.00144715546752        3.17673412092037        0.80974229534892
C           -4.51955432563399        2.76985908217923        2.18657280417776
C           -3.59794419823306        4.64731214691372        0.83042028144230
H           -4.60459061086344        1.11291284929926       -1.34589734134898
H           -6.70158095355432        0.32574531879991       -2.07472343827418
H           -6.83895319064161       -1.11692193551444       -3.11241712087745
H           -5.36349450609118       -0.12429498725999       -3.16908377696148
H           -4.80618289353812       -3.65122477936966        2.23662631577569
H           -5.10038678305882       -4.89340328099160        0.99234076560733
H           -3.46021338297436       -4.25070538738618        1.23341953116025
H           -3.07285103698513       -2.08066402188874        2.07273893473632
H           -2.24022012167293        0.20891033789322        2.07652514488969
H           -3.18608300830982        2.85190647379410       -1.72184274468553
H           -1.46374881016377        2.97957536784479       -1.23614634557586
H           -1.92163122246440       -0.37163408479586       -1.78141080977250
H           -1.50797911844775        1.02820425374235       -2.90071591246379
H           -0.76264383183022        1.79388979377792        0.75711942340525
H            0.57118705061954        1.48907700726531       -1.68086197509373
H            2.16722577565150       -0.50283762234968        0.67103300138834
H            2.19216173001703        0.96133420057820       -0.27554789484663
H            2.78796971535687       -0.30051519266308       -2.29482523587895
H            2.70557606737850       -1.82059670855184       -1.39616147324727
H            4.55954774086364        1.39340432627907       -1.67617907576256
H            6.84105232928450        1.71333169385657       -0.89441417177034
H            8.52923401843994        1.89772249550282        0.75629933094555
H            9.15335619125854        1.21283469118219       -0.77325985534335
H            9.96963535703232        0.84679812637039        0.76699958995577
H            7.19803282981825       -4.17978158575741        1.77331578955702
H            5.55172792698547       -3.51119798274613        1.87669264189212
H            6.17194536610909       -4.13072916922245        0.31854429073504
H            4.48391415017125       -2.50821848963649        0.03097122280758
H           -0.05220952875335       -2.24450372049692       -1.19680833553264
H           -1.03052197951930       -1.39441513409696        0.02346419822038
H            0.55453870489330       -2.03853123852238        0.45682315055291
H           -4.81283077837165        3.05117896779268        0.07973903288953
H           -3.73163741105303        2.87995291508758        2.92685803601817
H           -4.86346411768615        1.73828186847295        2.18666748152856
H           -5.35410806160833        3.41149277100850        2.46055735456564
H           -2.81968683555738        4.80406507390305        1.57076333508182
H           -3.23964384352282        4.97622136139477       -0.14005306346106
H           -4.45799779537339        5.25707747743627        1.10092876843906
H           -0.61512344890479        3.02536181689963        2.69878486875662
