25
 energy: -42.505287095403 xtb: 6.6.1 (8d0f1dd)
C            3.16055366315201        1.08875834343128        0.08654489455747
N            2.14440731514302        0.07269185158962        0.00947585989320
C            2.36674820062769       -1.25877152369589        0.04050416118771
N            1.16178684998747       -1.89079077783871        0.04572506340821
C            0.14975706369603       -0.97358274361203        0.00274789198072
C            0.77062113695319        0.27733479898343       -0.01553047293126
C            0.01947000511622        1.48680292932029       -0.03201891334901
O            0.47456240611098        2.62487355389491       -0.07226594009833
N           -1.34979049607884        1.21492144124891       -0.04544917401655
C           -2.17181858216170        2.41168399651741       -0.04710013213203
C           -1.98106564993891       -0.05579978686527       -0.05349630621702
O           -3.18788668397740       -0.10949698807546       -0.06703412482079
N           -1.16009288144301       -1.21993626446326       -0.02729236703307
C           -1.05391419468385       -3.25942845445898       -0.08827219897741
H            3.79573039641784        0.93236965098282        0.96989092755116
H            3.75286824587332        1.08407864687155       -0.83085955658798
H            2.68067214592229        2.06341944118196        0.15217920042604
H            3.31066361809996       -1.78816648724060        0.04908071397512
H           -1.43346268902343        3.21851764396293       -0.00220918091206
H           -2.77957749458739        2.44663306366420       -0.95334684059001
H           -2.83846967061988        2.39363320733976        0.81773188835301
H           -0.60944872744193       -3.52901406991682        0.84934441434704
H           -0.45231127733403       -3.47551475489855       -0.94300021464281
H           -2.11792525734328       -3.32937749150249       -0.12471785548148
H            0.90132106254134       -2.86994841062053        0.13103325637819
