72
 energy: -99.360830635091 gnorm: 0.002578964874 xtb: 6.6.1 (8d0f1dd)
N           -1.72549173766488        2.80173127285757        2.20726773466507
C           -1.77582398117735        1.98487397523284        1.26360521795727
C           -2.93332003652973        1.84859124902724        0.31368714501700
C           -3.43169072266839        0.41265779188582        0.33713742994996
C           -4.32256904349506       -0.03575537605720       -0.64037364557062
C           -4.82110894274475       -1.32773136917106       -0.62713046009523
O           -5.69030625501266       -1.83778112272430       -1.52646706287803
C           -6.25112585587850       -0.98861679070054       -2.49932666151446
C           -4.41396038946687       -2.22498438074890        0.39578201370338
O           -4.94231047391495       -3.46509441954641        0.32730268537100
C           -4.66953598592259       -4.38047482773406        1.36223873486895
C           -3.53645314380937       -1.77169461115893        1.36700145963204
C           -3.05755593642600       -0.46843270194023        1.33916858882957
C           -2.36421721561137        2.21245219695914       -1.08462095052130
C           -1.49739814745973        1.12073499292265       -1.73040906505254
C           -0.19638817646694        0.91968059125767       -1.05578206244272
N            0.40697155648291       -0.25828512382358       -0.92254087008978
C            1.69712399467403       -0.33988193927884       -0.26349513679041
C            2.73346413455722        0.56714504679615       -0.85820847505712
C            4.06169791575960        0.46413061993224       -0.62546677292496
C            4.97397276035870        1.41514987353043       -1.17337684863272
C            6.31626084325774        1.34504004132465       -0.97388391876263
C            6.91234834365490        0.28973880822465       -0.23030200526714
O            8.24815096161804        0.15069463757303       -0.03780405728238
C            9.12703872838121        1.12332453439651       -0.55465132924155
C            6.11087089205744       -0.68595228506635        0.32698068779848
O            6.73104555786240       -1.67983978278536        0.98978118435726
C            5.99185889498929       -2.73516014597032        1.55345924539446
C            4.61844783910525       -0.64953552716887        0.22304003091872
C           -0.25433714444447       -1.48167938304276       -1.30977580272132
C           -4.13317422009109        2.78242266239953        0.64826368150638
C           -4.71938437825599        2.46628305023795        2.02204488528749
C           -3.78717124690059        4.26682348954308        0.56568159914021
H           -4.64284343329845        0.64305944893305       -1.41361465746548
H           -6.77595493125114       -0.14513294577420       -2.04077590204407
H           -6.96481591997080       -1.60247771171602       -3.04526588299157
H           -5.49254855599425       -0.61452413446431       -3.19490005424099
H           -4.99647867548765       -3.99672053727959        2.33323892561949
H           -5.23817781575711       -5.27554370011562        1.11816658072696
H           -3.60450221283908       -4.63035034777297        1.40821194803132
H           -3.22830519790349       -2.42239319404886        2.16924235936909
H           -2.40657786740075       -0.14298007447591        2.13579049763163
H           -3.19768630854690        2.41917183897425       -1.75564636555501
H           -1.77979421611071        3.12876110862426       -0.99353365853223
H           -2.06527644369009        0.19284460620150       -1.77905482753864
H           -1.29744503647858        1.44149637387794       -2.76209325757725
H           -0.94511845284936        1.30518156584388        0.98938312378866
H            0.36936923252088        1.79269174040646       -0.77168243985467
H            2.03997806994390       -1.37704376668810       -0.31335088825073
H            1.57028172386799       -0.09819402226887        0.80568055334917
H            2.37797812676092        1.35887136065111       -1.49700320304639
H            4.26884276710388       -1.60725297820131       -0.18141862084456
H            4.56464412285385        2.22155847379309       -1.76176666989784
H            6.95146759426964        2.10202296449439       -1.40351737446761
H            8.93421690264008        2.11094811493626       -0.12406516783310
H            9.07282000035481        1.18029080779825       -1.64614785830961
H           10.12276454988230        0.79415608170632       -0.26336892270476
H            6.72765221082647       -3.39225099067894        2.01346859533118
H            5.29507135842050       -2.38222252197694        2.31966383920415
H            5.44050524666863       -3.29639273475109        0.79206793246184
H            4.20334450938651       -0.57024145721285        1.23793289833697
H           -0.54477633641768       -1.44351506646167       -2.36066431741174
H           -1.14943944770755       -1.65098073301402       -0.70357274231739
H            0.41789281667056       -2.32478365756729       -1.17501461517866
H           -4.90425814294736        2.57084157065458       -0.10192960400631
H           -3.99966456536472        2.70560609655062        2.79838531824619
H           -4.99099963647663        1.41633594882968        2.10140272369714
H           -5.61289487991512        3.06352507698143        2.18325122536987
H           -2.98389456207838        4.50393820017000        1.25588237432750
H           -3.49756250956841        4.56220414199822       -0.43917604560287
H           -4.66040273151488        4.85085405684599        0.84442327161750
H           -0.87682514442435        2.83220547151146        2.76380855161956
