  25
        -42.09304502
 C          3.1780114089        1.0928680421        0.8875216506
 N          2.1227130192       -0.6000728398       -0.6549903197
 C          2.2888740493       -0.0939449663        0.7080144418
 N          1.3375988102       -1.8312080659       -0.7044504823
 C          0.3057940313       -1.2174882230       -0.1735093358
 C          0.9759806287        0.0915185873        0.0036581613
 C          0.1562049536        1.3142732482       -0.2303427011
 O          0.5819354398        2.3954072744       -0.5316503218
 N         -1.1706105832        1.0172985193        0.0180856171
 C         -2.1068305793        2.1402815046        0.0282657940
 C         -1.7806551112       -0.2290452108        0.2217126214
 O         -2.9425403978       -0.3207498142        0.4785210258
 N         -0.9861954938       -1.3932763557        0.0357244123
 C         -1.6349424356       -2.6878408591       -0.0741474888
 H          3.0180276704        1.5159298280        1.8772440975
 H          4.2224900983        0.7920527162        0.8228788616
 H          2.9735408957        1.8646988891        0.1481410567
 H          2.3660722901       -0.8801237101        1.4562654940
 H         -1.5379422790        3.0613945484       -0.0672891807
 H         -2.8080883047        2.0492304236       -0.8007783016
 H         -2.6696281154        2.1352471938        0.9606111053
 H         -1.3259740202       -3.3279758100        0.7513098095
 H         -1.3524037425       -3.1579847481       -1.0152783047
 H         -2.7116420916       -2.5346852187       -0.0322323325
 H          2.7090219709       -0.3319193846       -1.4530764368
