25
 energy: 0.000000000000 xtb: 6.6.1 (8d0f1dd)
C            3.23720132972391        1.16630909158653        0.08434468864950
N            2.29877796055224        0.07527476373246        0.03981602671198
C            2.58028186251803       -1.21425391179017        0.03006175752192
N            1.43813944744728       -1.93419254010258        0.00098261751768
C            0.39035684826767       -1.05887462812143       -0.00790371763344
C            0.93510047688824        0.21347817468824        0.01709077332874
C            0.09450143016486        1.40504290868848       -0.00410946993748
O            0.49712746915594        2.54126690785742       -0.00342325656480
N           -1.25076628431515        1.06271869620815       -0.03085477937476
C           -2.21907191394203        2.15522079838987       -0.05001256521996
C           -1.81739470187490       -0.20012724136556       -0.04692818139228
O           -2.99983858926755       -0.37846413507442       -0.07008877579474
N           -0.92618577614240       -1.30210203518959       -0.03682761236648
C           -1.46982251276835       -2.64643077634382       -0.06029819901142
H            3.71247229913541        1.21471443890471        1.06488839270555
H            4.00791460421487        1.03430799217987       -0.67357688121503
H            2.69909982127087        2.09770098766290       -0.09130154035862
H            3.56654087521359       -1.63682977417947        0.04233139674524
H           -1.67107945562430        3.09322822573871       -0.02552706696334
H           -2.82428927394145        2.09428605349656       -0.95318074103337
H           -2.87644002486466        2.07745706351925        0.81450059976605
H           -1.17061985538665       -3.19584861009707        0.83242224714061
H           -1.14560246782873       -3.17511580834413       -0.95688266944647
H           -2.55549768731684       -2.55659960601237       -0.07459039105944
H            1.38130842369251       -2.94313824728853       -0.01389874052104
25
 energy: -6.110386466440 xtb: 6.6.1 (8d0f1dd)
C            3.30165682301995        1.15677861833785        0.04012942794624
N            2.32089094652398        0.12286192327909        0.08387569630860
C            2.60012985106907       -1.23435072951789        0.08551681292343
N            1.40746951144422       -1.91935245835357        0.05080504290250
C            0.39950282777473       -1.02971419547434        0.01283003515417
C            0.92680445093564        0.25539000741175        0.00485109038335
C            0.10234761650862        1.39493082406362       -0.03058867084940
O            0.45732116303208        2.57645495697284       -0.04982603099814
N           -1.29115204300240        1.03917954191785       -0.02723758043306
C           -2.25044592231892        2.12359511034870       -0.04217189860138
C           -1.83465552920985       -0.20114805623883       -0.02934906588165
O           -3.03143279862737       -0.40568292711115       -0.04451436091077
N           -0.93832589630531       -1.27656820898370       -0.01353108134171
C           -1.45415490790624       -2.61395702715524       -0.09114082891095
H            3.85642466868322        1.18616599852241        0.98559099481508
H            3.99740257302422        0.99268508561613       -0.78953765203646
H            2.77489058117570        2.09848968672319       -0.10193030753531
H            3.57219376045005       -1.66370897806688        0.10316338314422
H           -1.67345629525749        3.03904090312722        0.02697991578747
H           -2.82048080487702        2.11302200882695       -0.96836544355383
H           -2.94509915033852        2.02152295419587        0.79045048979390
H           -1.09656763612553       -3.18832973679210        0.76004682432433
H           -1.13691232360976       -3.08190397936651       -1.02040069909418
H           -2.54105958835987       -2.55056180236937       -0.07751916719092
H            1.32834599086343       -2.92254004822637        0.04161056428767
25
 energy: -3.387872818658 xtb: 6.6.1 (8d0f1dd)
C            3.37132843199542        1.07725902992898       -0.08460361508795
N            2.33219346999581        0.11858975981173        0.03845376310607
C            2.58606724239599       -1.23038965574404        0.19644241490332
N            1.39059618330471       -1.90369050811150        0.17384302417740
C            0.39560663617473       -1.00576626134108        0.07121692291384
C            0.93100709792442        0.27313399060652       -0.03267265712451
C            0.08382562314489        1.39648575211979       -0.09099010374786
O            0.42153262687542        2.57958551080468       -0.15687670157160
N           -1.31220961344756        1.03091126214513       -0.01374158313509
C           -2.27903399111835        2.10376917527285       -0.03071070404316
C           -1.84991055836009       -0.20579696045722        0.03184855533753
O           -3.04404519590560       -0.42359545334272        0.04174322334754
N           -0.94091140328483       -1.26055409366151        0.07364128748444
C           -1.43178606888992       -2.58822788743984       -0.12648373467947
H            3.98791431481437        1.05135698809061        0.82367584105107
H            3.98039553319786        0.85533396335805       -0.96942071579805
H            2.90761466102493        2.05534475795113       -0.18115122504599
H            3.55887931608128       -1.65432564545126        0.24266026864193
H           -1.71145173302553        3.00873976223466        0.12428219939392
H           -2.78215292544157        2.16606297292892       -0.98803730803969
H           -3.02962237339721        1.94319161853567        0.73467396758106
H           -1.02139439088696       -3.21027358928635        0.65790481663806
H           -1.12901953089478       -2.94708355919062       -1.10403160081279
H           -2.51749462797416       -2.56432641447791       -0.08835753157638
H            1.29879092346390       -2.90526964054896        0.17414512192928
25
 energy: 2.266651312165 xtb: 6.6.1 (8d0f1dd)
C            3.44341136235550        0.95613148057131       -0.23739619075085
N            2.34048123963340        0.11318760567888        0.04305986784423
C            2.56624601298213       -1.20931609314117        0.36475562432565
N            1.37165414310615       -1.87474398007142        0.35084777181284
C            0.38786488332948       -0.97772688230642        0.16795532573167
C            0.92960334657724        0.28833059804524       -0.03856961176868
C            0.05579200563501        1.39131433791338       -0.15823511201132
O            0.36742665888279        2.57144563034581       -0.30650055505425
N           -1.33808619812402        1.02143760182387        0.00344077973766
C           -2.30855999156890        2.08821746332123       -0.01796656780412
C           -1.86717910490977       -0.21112320102536        0.12133829823738
O           -3.05751488982832       -0.44204449098467        0.17171185304872
N           -0.94674251472947       -1.24983617707289        0.18820601879207
C           -1.40304099720066       -2.55490025684559       -0.17354372240267
H            4.13100344646648        0.86418756328016        0.61268910338985
H            3.93024775323463        0.64642527863008       -1.17271209370101
H            3.08372324884810        1.97840960328777       -0.30231511678868
H            3.53823905022027       -1.62750325595420        0.45307714019389
H           -1.77331163538341        2.97530714851555        0.26946486520446
H           -2.70747452537959        2.25897379649474       -1.00588503104937
H           -3.12971767488185        1.84810299511550        0.63731025787301
H           -0.93273602243716       -3.23679072135273        0.51598623814316
H           -1.12526787124314       -2.76890715418557       -1.19840149137906
H           -2.48435336365625       -2.59060627421125       -0.10929401823029
H            1.27136125203125       -2.87475417913826        0.36290745896369
25
 energy: 9.643061198389 xtb: 6.6.1 (8d0f1dd)
C            3.50532832143943        0.80695180891685       -0.38948947864116
N            2.35245526054207        0.11457861766264        0.06803050612939
C            2.54654068633306       -1.16158309662082        0.55522914235723
N            1.35623278216798       -1.82700346106301        0.55752442480191
C            0.38013950598106       -0.94633042746806        0.27999700321776
C            0.92334854482306        0.30010697499261       -0.02824228126277
C            0.02117783160857        1.37666203264141       -0.22350666781354
O            0.29929741296478        2.54401813469819       -0.47681533666224
N           -1.36613770188414        1.00867274414903        0.01813503356706
C           -2.33745813309611        2.07407418133356       -0.00437990221491
C           -1.88305331926443       -0.21749420213524        0.22484742688203
O           -3.06755344511371       -0.45872319448303        0.33072986320407
N           -0.95305294103456       -1.24667145851433        0.30214660018364
C           -1.36754903093257       -2.50807897462978       -0.23687254506793
H            4.25570112282971        0.63935176632056        0.39041665492529
H            3.85581781236766        0.40862029187785       -1.35532617861091
H            3.28089218618025        1.86766593192731       -0.44632234601196
H            3.51289495481886       -1.57733133199509        0.70375797233880
H           -1.87841423509033        2.91772785761856        0.46834280061203
H           -2.58694162196848        2.39276162604212       -1.00187221420286
H           -3.24059267755230        1.74048908926168        0.47185720537199
H           -0.82841808089077       -3.24583682867329        0.32794710469988
H           -1.13364003154814       -2.55450407348396       -1.29291618186240
H           -2.43740486044677       -2.62600581275681       -0.13808638697646
H            1.25161563240130       -2.82543753988649        0.59764087943566
25
 energy: 16.850655130164 xtb: 6.6.1 (8d0f1dd)
C            3.55342640761847        0.65881858409898       -0.50787306922206
N            2.37528999973288        0.12293033327734        0.10152682206842
C            2.53602158854542       -1.10954001868776        0.69418930538606
N            1.34573877353107       -1.75947071150625        0.76368754758582
C            0.37698148064567       -0.90918036007462        0.38713460998148
C            0.92040263071470        0.31535999710067       -0.00536363843120
C           -0.01404843955909        1.36185160752222       -0.27499367590430
O            0.22870201373828        2.50237508980023       -0.64374180989145
N           -1.39272336224197        1.00019316150280        0.03852218739964
C           -2.37454882098841        2.06111569826726        0.01481302877396
C           -1.89200052373146       -0.22016543397488        0.32169708445399
O           -3.06806814606925       -0.46747061576633        0.48799416646917
N           -0.95322203903439       -1.24677090858816        0.38881136719116
C           -1.32517310148124       -2.44558706452831       -0.31502845449185
H            4.34713239851392        0.41290463108305        0.20099623529507
H            3.77802967936665        0.19308373658313       -1.48124467289177
H            3.46576604425365        1.73744110938774       -0.58029824109228
H            3.48275897948735       -1.48641496813387        0.99121075763310
H           -2.02958984695050        2.82139632523906        0.68278039044116
H           -2.43683384419077        2.54536609288270       -0.94491402074414
H           -3.33315135028271        1.63403593585548        0.23528753993884
H           -0.70424957062545       -3.21284433669233        0.10422452036278
H           -1.16741767234940       -2.32547509011989       -1.38003895113993
H           -2.37234248045937       -2.66881503081269       -0.17813286691377
H            1.23578119138520       -2.75546451790970        0.84667977848299
25
 energy: 56.921427347088 xtb: 6.6.1 (8d0f1dd)
C            3.85951662850911        0.49573942251896       -0.54908887498123
N            2.68736778252002       -0.06071090484514        0.00446951226448
C            2.58537314189056       -1.05815621870842        0.77838936857032
N            1.35150410476949       -1.61089683020056        0.96843022268713
C            0.34696743629325       -0.78912604216485        0.46310045103462
C            0.71022181558620        0.42358112354923        0.03510889762538
C           -0.21304082399475        1.40011925019873       -0.34796164778583
O            0.01540730574231        2.48318336949550       -0.83782262550631
N           -1.52706293619359        1.03296498325629        0.09017839177138
C           -2.51979530041519        2.06822421144080        0.04411636049359
C           -1.94502412317848       -0.22426496039632        0.39640121227105
O           -3.10437959442649       -0.50211509550214        0.62046015713992
N           -0.97198882228605       -1.21922155480016        0.40985606934187
C           -1.28558441895833       -2.36697060409848       -0.40020566743401
H            4.67388833827930        0.22398824783626        0.10482830982251
H            3.94900336350779        0.04497303179448       -1.54372051667818
H            3.71993870346350        1.57475483421214       -0.61698962337517
H            3.45242819002589       -1.49940471085353        1.26563944314451
H           -2.32516971562538        2.70642448884471        0.87600864702363
H           -2.37600734109107        2.69047506488640       -0.82233022129949
H           -3.46721526198276        1.56801876435242        0.02400020273790
H           -0.57099273121702       -3.11219109523604       -0.10708579170853
H           -1.19924081869407       -2.11660867863722       -1.45017075445154
H           -2.29262334765870       -2.71887303336509       -0.24035083031970
H            1.21698281370559       -2.60498278361070        1.06758811899907
25
 energy: 58.370273386867 xtb: 6.6.1 (8d0f1dd)
C            3.99387477940768        0.41417072380037       -0.55725171913138
N            2.76254329600387       -0.07468773526906       -0.01700797441573
C            2.59984157510093       -0.98759879074443        0.84783242296215
N            1.35299246080175       -1.51827929595343        1.05055010423847
C            0.34541917405291       -0.74347558918061        0.48458919109914
C            0.67386948455392        0.46518940556034        0.03066833822530
C           -0.27057795928138        1.40629771098472       -0.38749090543378
O           -0.07800706035548        2.45439395590651       -0.95789165262320
N           -1.57387704134168        1.03258057719678        0.09027990570938
C           -2.58341251406185        2.04806392429566        0.05326711069815
C           -1.95904064692377       -0.22442471417731        0.44354433036132
O           -3.10281141504570       -0.51066669455621        0.72459065974042
N           -0.97132608719404       -1.20923902169057        0.43475767784300
C           -1.24684751192601       -2.29306066812069       -0.48021734592117
H            4.76959713830634        0.11080486351155        0.13097993360343
H            4.13093482951208       -0.08879459854894       -1.51469861035420
H            3.90809429141146        1.49126976792558       -0.68387270624483
H            3.43661264356095       -1.40483957630007        1.41422262855679
H           -2.54757512915417        2.55435183349888        0.98882758363775
H           -2.31637217074810        2.79223550938635       -0.68238708536306
H           -3.50201231276747        1.55400737712836       -0.16612903377456
H           -0.45906552759594       -3.00273457859489       -0.31664744947241
H           -1.24663854937104       -1.92949838253599       -1.50067026623637
H           -2.20397777429191       -2.75689322967397       -0.30342366430833
H            1.20137121528770       -2.48977219498161        1.27593958805389
25
 energy: 60.583878665936 xtb: 6.6.1 (8d0f1dd)
C            4.14324202061519        0.34758908921921       -0.53883714677042
N            2.86614498867948       -0.11786409265894       -0.08246625675369
C            2.63307687675593       -0.94519732319606        0.84055261968103
N            1.36607676501857       -1.43780438890475        1.07630017258112
C            0.34232853876901       -0.69931574715601        0.49645478952270
C            0.61912306931452        0.51803198978884        0.04240536933410
C           -0.34564749006235        1.41895286465508       -0.40916712239797
O           -0.18462488483480        2.43774347759263       -1.03657103526004
N           -1.63639580257068        1.02581357263557        0.09307651894900
C           -2.65682573004059        2.02434946512270        0.06928621801826
C           -1.98593737190698       -0.23641588372435        0.46699169344730
O           -3.11116413671030       -0.54382846724326        0.78781007470308
N           -0.97422740645521       -1.20188827322055        0.43515533896412
C           -1.21141949481196       -2.22702074153503       -0.56395255702357
H            4.86202350247368        0.11824968606968        0.23344556625442
H            4.36914867771054       -0.21580641540531       -1.44086913069453
H            4.05474830435129        1.41188501298987       -0.75830914370370
H            3.42462040582634       -1.31567562624281        1.49573366845153
H           -2.72145116467859        2.42968859802075        1.05743935886411
H           -2.31304304687334        2.84424703428333       -0.55116147550277
H           -3.55674980963881        1.56750169021753       -0.29363731651428
H           -0.36170099877992       -2.88057837881410       -0.50084807162870
H           -1.31092687250679       -1.77500894362398       -1.54634757905912
H           -2.11114075757636       -2.79574263030839       -0.38044396694452
H            1.19994082982998       -2.36972000433278        1.43127708639905
25
 energy: 62.267551565706 xtb: 6.6.1 (8d0f1dd)
C            4.29828765603865        0.28884761843483       -0.51765010618780
N            2.98769601238052       -0.15240282293462       -0.13504515657662
C            2.67947331219024       -0.94476350092432        0.79244052462523
N            1.38565535517540       -1.37308994432773        1.06438982588315
C            0.33356104345140       -0.64571174755931        0.51468004609683
C            0.55067527627011        0.59096178645402        0.09418728440360
C           -0.43231352717875        1.44710046345714       -0.40515873233388
O           -0.29577778845100        2.43586683673351       -1.08241474230319
N           -1.71278545813567        1.02464934484053        0.09783663993954
C           -2.75813264184717        2.00226513470246        0.09784887950770
C           -2.02564468708548       -0.25034924949717        0.46125699055344
O           -3.13939664255009       -0.59519801675644        0.76975035387317
N           -0.97887482467276       -1.19037576449630        0.41849992356426
C           -1.18076347602560       -2.16920840670290       -0.64102207464207
H            4.96870508881346        0.15605360069497        0.32123474268853
H            4.60074802369614       -0.32431937897881       -1.36072488543455
H            4.21738457891330        1.33193857838089       -0.83270858237537
H            3.43795030435267       -1.38424801973999        1.44215615075839
H           -2.87569279739713        2.33113145031998        1.11389555904711
H           -2.39912371095951        2.87051740666377       -0.44707678977296
H           -3.62433973583575        1.55971857579913       -0.35767364681958
H           -0.28495958039229       -2.76463798282810       -0.66682519265168
H           -1.37247207868258       -1.65951687867555       -1.58627336948028
H           -2.02203388434833       -2.82337709435427       -0.44934821895614
H            1.20882642180532       -2.25144314183636        1.53991316138473
25
 energy: 66.291795899626 xtb: 6.6.1 (8d0f1dd)
C            4.47054875654554        0.22580102089899       -0.50583247549768
N            3.14790383514433       -0.19733071234743       -0.15124848367674
C            2.72844610562264       -0.95646550558177        0.75262832639593
N            1.40023215403917       -1.30556329466753        1.03402383142899
C            0.31585091001801       -0.59500661079330        0.52522821921887
C            0.46526453807183        0.65922750317080        0.13501352050571
C           -0.53463814539347        1.47932056673426       -0.39322098444248
O           -0.42228160652048        2.44959124015960       -1.10184496310372
N           -1.80060818824167        1.02612973365365        0.10580457043967
C           -2.86515174863810        1.98892366724371        0.13930133115045
C           -2.07495071023292       -0.26734390234696        0.43788633060122
O           -3.18184199708225       -0.66033473946785        0.70919294657137
N           -0.99173889442735       -1.17685489292322        0.39412019804319
C           -1.16383826640533       -2.11973335058545       -0.70909202243238
H            5.12572034202377        0.15480203625752        0.35549184232583
H            4.81612564061121       -0.42196485842157       -1.30842319992744
H            4.39238292532529        1.25049704922464       -0.88204345842974
H            3.38455869842870       -1.46792360205234        1.45672304134799
H           -3.02125153959442        2.23354594864957        1.17700005329266
H           -2.49864182853565        2.89728339934357       -0.33129952356660
H           -3.71261581254109        1.57312394463708       -0.38261855724792
H           -0.23126866238548       -2.65470222622864       -0.80961929226038
H           -1.43801462340438       -1.57631766988672       -1.61940620406880
H           -1.94605337032869       -2.84721546774248       -0.51220667024744
H            1.21910060215210       -2.12910956229954        1.61413774350537
25
 energy: 71.750634306648 xtb: 6.6.1 (8d0f1dd)
C            4.64791334836940        0.15913509509848       -0.48481325476152
N            3.29346410313003       -0.20613253887475       -0.17154515167599
C            2.77464833720150       -0.91807223016106        0.72684704806275
N            1.40747651670297       -1.24721442028960        0.97667838785795
C            0.29063649326228       -0.54598634890038        0.51841288716041
C            0.38058521716236        0.72049936663423        0.15818804640686
C           -0.63604143383506        1.51122471515336       -0.37617654629233
O           -0.54340809901775        2.47500299276255       -1.09585934000694
N           -1.89263628006774        1.02776608670937        0.11292348820346
C           -2.97393732799733        1.96895975973084        0.15972631171330
C           -2.12435846168377       -0.28184528092700        0.41620590521152
O           -3.22125747536911       -0.71477680640712        0.66198301191909
N           -1.01498758171981       -1.15771178572263        0.36139508279570
C           -1.16163789725399       -2.08223600407478       -0.76286088536578
H            5.30214465713602        0.13815110107828        0.37745404023631
H            5.01857408124865       -0.50480854675772       -1.26099774366973
H            4.57570210266558        1.17150521434114       -0.90117455846684
H            3.33587298943752       -1.47041294188724        1.47096859132435
H           -3.16082347589220        2.15887079806860        1.20176967947143
H           -2.61685500766464        2.89596131082861       -0.28312857511364
H           -3.81657689205831        1.56743688053843       -0.38011557399259
H           -0.20645599658909       -2.56045636579514       -0.93044859523045
H           -1.51179968191105       -1.52754211457233       -1.64126016681761
H           -1.88738922682404       -2.86533260837534       -0.55150634235950
H            1.23207179722332       -2.01115390460965        1.64560753483538
25
 energy: 78.432709553997 xtb: 6.6.1 (8d0f1dd)
C            4.81678127751547        0.11545864361826       -0.48167625433892
N            3.43849658528805       -0.22236953774048       -0.20632981809695
C            2.83078272665988       -0.90218124305253        0.66380225193224
N            1.44291902375587       -1.16793419522116        0.91147558459096
C            0.28355704479282       -0.50021259284386        0.49740618145522
C            0.30027365715711        0.77234938886857        0.17093944282618
C           -0.73482176533687        1.55175311856706       -0.34445292018572
O           -0.66020366874278        2.53482629852518       -1.03916898050957
N           -1.97876076076516        1.02600286113535        0.11929794558710
C           -3.08860206409891        1.94022924802567        0.18082551033954
C           -2.16727549466745       -0.29533941457275        0.40397154809801
O           -3.25535280714517       -0.76539082275241        0.63381207145012
N           -1.02751125207949       -1.14268771585487        0.33829498774027
C           -1.18332657783373       -2.06006371117552       -0.79489618915918
H            5.46454339950572        0.12773194350258        0.39416229463583
H            5.21017661366857       -0.57148480855247       -1.22722052470056
H            4.76645629222547        1.11575241424611       -0.92845164984274
H            3.29430384286080       -1.43734060759794        1.48198286210990
H           -3.26937047520062        2.10813714603446        1.23077418419119
H           -2.75918736742374        2.87297198677998       -0.27374798127982
H           -3.93190942847543        1.52119967205530       -0.35195033451332
H           -0.21460032215953       -2.48292625205091       -1.04008049463843
H           -1.60028600960207       -1.51027439191091       -1.64653515127401
H           -1.85886404070772       -2.87925911164043       -0.55664554331378
H            1.28378218121486       -1.87122352266602        1.64587895683511
25
 energy: 91.789503206264 xtb: 6.6.1 (8d0f1dd)
C            4.96406328341161        0.07335312487347       -0.47154623150134
N            3.56744582018797       -0.27315746363562       -0.27111299597665
C            2.85848575310060       -0.85913121315773        0.61294174862238
N            1.53571588821952       -1.06084520746882        0.80121765280231
C            0.27592229102235       -0.43995113993143        0.46172362115545
C            0.26683182884376        0.84103198590450        0.16344077303153
C           -0.81293253645320        1.58358190045734       -0.29004935568453
O           -0.80480614086871        2.57530306446354       -0.97285572136284
N           -2.05876482302479        1.01147997528106        0.15468766108050
C           -3.19058560626634        1.90879295800071        0.19699187019858
C           -2.21698359929929       -0.31733927783787        0.39980972762322
O           -3.31089053915840       -0.81001748191340        0.59624880424514
N           -1.06047979432102       -1.11135570301071        0.31552289942707
C           -1.21335316238631       -2.06716408427562       -0.78845478022771
H            5.59515967265731        0.10922440115035        0.41495420159434
H            5.39727494886592       -0.60571486633604       -1.19889803248111
H            4.94374298915704        1.06242787744577       -0.94116395044479
H            3.19375397302014       -1.40916589804058        1.51452202712388
H           -3.37093668618090        2.05281740200691        1.24132261704352
H           -2.88343386103074        2.84564155677767       -0.26660609715327
H           -4.02869013985951        1.47911064960790       -0.34277085544326
H           -0.25427875218826       -2.40641697214517       -1.14224627173053
H           -1.75372282091353       -1.53699248067172       -1.59572714616398
H           -1.81050558493449       -2.91858233069803       -0.48580093493824
H            1.35114797280641       -1.75013598316444        1.55857688091917
25
 energy: 127.643446915178 xtb: 6.6.1 (8d0f1dd)
C            5.49086297173314        0.16748203235080       -0.58710972189431
N            4.36459352594206       -0.37809069699922       -0.13002668402253
C            3.58769526008755       -1.12230764344328        0.31874524241901
N            1.14915034277754       -1.07523445169369        1.26767572905418
C            0.04652611260130       -0.50696866204071        0.63657633755952
C            0.00870294520457        0.81999720430311        0.31212190368450
C           -0.97433312382760        1.58563511417430       -0.27181656245344
O           -0.83030482728079        2.60518813153269       -0.93989826941661
N           -2.18160801721232        1.03827386184992        0.14293031647640
C           -3.32393403064464        1.92140269440754        0.19865762214768
C           -2.29628246431189       -0.33314387876552        0.37637658875653
O           -3.41588053552828       -0.80753910258564        0.56033500308558
N           -1.16018077332394       -1.10573898381663        0.33656301847255
C           -1.28556065676818       -2.06695380536791       -0.79469337530585
H            6.12866498261365        0.27640999980135        0.30101815540102
H            5.85776157296975       -0.58714746201889       -1.28964504846912
H            5.24388355663177        1.10335834076522       -1.05340217019768
H            2.12113087589528       -0.99356911917536        1.00396519540898
H           -3.47823295154108        2.08755644254819        1.26763849280930
H           -3.02618595165287        2.84076580015897       -0.30368878638067
H           -4.19026543916041        1.47285302405565       -0.29656585059228
H           -0.35132077786781       -2.30513650999378       -1.22456847273712
H           -1.94425474137369       -1.58584392789943       -1.55962769285858
H           -1.79504505841712       -2.99606624021857       -0.47850320501339
H            1.02002949692407       -1.90024080282094        1.83601508793527
25
 energy: 140.049421804691 xtb: 6.6.1 (8d0f1dd)
C            5.68181441931511        0.10607846956782       -0.57156844348132
N            4.56437246774153       -0.50816202101585       -0.07150993980822
C            3.61949762489580       -1.05805603585503        0.28225974733324
N            1.31097423060310       -1.01345160169043        1.36494458655435
C            0.45578180164794       -0.20737273450081        0.85638196251413
C           -0.09122362674738        0.73398961614463        0.30033748260022
C           -1.08694893508659        1.55848554124365       -0.21724321107106
O           -0.93025934498156        2.59774712219745       -0.82264592134121
N           -2.34189687693760        1.01156002569635        0.11016542110611
C           -3.43640460313011        1.94228799781434        0.22025542010555
C           -2.56861802326117       -0.34586176306074        0.29624822871875
O           -3.68200976503778       -0.79534065105575        0.49949997853824
N           -1.53456269018339       -1.21794192467607        0.24653785354670
C           -1.48398256434522       -2.10667990885836       -0.86264883984294
H            6.34508066052543        0.27762206896673        0.27074747012743
H            6.09977895140740       -0.59801487738282       -1.28474316840303
H            5.39773629790778        1.04207404968317       -1.05548564519505
H            2.31509719966104       -1.04169942898195        1.03730493574104
H           -3.55683048231777        2.17256304363034        1.27689642651334
H           -3.15534822016402        2.83560141769605       -0.33840767551061
H           -4.33622250305939        1.49265510874858       -0.18432150061854
H           -0.45802959859063       -2.21477516194739       -1.26050303308105
H           -2.12186560109294       -1.72762006945533       -1.66015338986562
H           -1.81472977736706       -3.10588359870430       -0.55884510153851
H            0.99901765452163       -1.79366043784376        1.90344600685602
25
 energy: 134.605820434318 xtb: 6.6.1 (8d0f1dd)
C            5.86641679059180        0.07293361860805       -0.57278165555720
N            4.73074939808582       -0.50015443221401       -0.04602187322804
C            3.72769632454146       -0.93623811509338        0.31562301519238
N            1.26799407885078       -1.08769702918707        1.37031512113969
C            0.47104152058975       -0.20526293711347        0.87883955913930
C           -0.16735883498553        0.67703660936271        0.32754148076814
C           -1.16462512750195        1.54272678722248       -0.16088558354534
O           -0.99773550702873        2.60057453678024       -0.73170222939767
N           -2.43145777625400        1.00932623519850        0.14305356156300
C           -3.52391186979271        1.95131935810279        0.23422550001280
C           -2.66884922869713       -0.35616524088351        0.28179862537853
O           -3.78137996605899       -0.82082511134274        0.46050010154309
N           -1.63935286532602       -1.22260393869428        0.22564338543122
C           -1.56938552642650       -2.12232291391895       -0.86918046192773
H            6.54397546649631        0.27532957196969        0.25271548965199
H            6.29308198422785       -0.64393890194040       -1.26811911418425
H            5.59030903989829        0.99570036734406       -1.08672548247810
H            2.25525580675320       -1.09247802778052        1.06958772180643
H           -3.62613448949476        2.26119417643758        1.27521752967234
H           -3.26682288104834        2.81112279259643       -0.38579489814472
H           -4.44105938941839        1.48394628840242       -0.11031214368642
H           -0.53324375883741       -2.15261561584862       -1.24235441649917
H           -2.22413448069034       -1.79757070161613       -1.67819487250442
H           -1.83992927420845       -3.14259432946998       -0.57085932832901
H            0.93365096802960       -1.80529798769257        1.98561410009659
25
 energy: 132.122293115128 xtb: 6.6.1 (8d0f1dd)
C            6.04348824501797        0.08234081460870       -0.60552011475246
N            4.87684255982971       -0.44597375004752       -0.08491022883537
C            3.86686636135643       -0.85667817037377        0.29900823838564
N            1.32036131744801       -1.04101829137072        1.40140982626623
C            0.49818397868423       -0.19719494938155        0.86424458505132
C           -0.18988188576823        0.65410441183190        0.32331702094259
C           -1.21493759879317        1.52340516231201       -0.12239347758586
O           -1.07076437484603        2.59927687892761       -0.66626659889118
N           -2.49230686962574        0.99665620786838        0.18064829477587
C           -3.58711984884692        1.95530651390800        0.24506050254295
C           -2.74795697952717       -0.36906326188585        0.27768247262170
O           -3.86210294904636       -0.83792185622052        0.44871912172462
N           -1.72867531587681       -1.25271114715847        0.21538545416586
C           -1.64446812753492       -2.13873806719461       -0.88676361990937
H            6.72600733418637        0.29923539798381        0.21495754423099
H            6.48443533877884       -0.64928514486808       -1.27989013445856
H            5.79203507833396        0.99619794262410       -1.14470501676967
H            2.28365637867119       -1.08010831367227        1.05451274113553
H           -3.68430883322190        2.34393205208758        1.26287406292975
H           -3.35487137980007        2.78544032456916       -0.42437119277400
H           -4.52481521297445        1.48747911956423       -0.05027805974860
H           -0.59757165182849       -2.10606524275470       -1.21431252615352
H           -2.29693207619813       -1.84986680975622       -1.71522902295761
H           -1.87419586379753       -3.17558248168400       -0.60913017450991
H            0.96390781074535       -1.82412634310769        1.92089590736238
25
 energy: 153.047413137721 xtb: 6.6.1 (8d0f1dd)
C            5.99643813674069        0.10174434019424       -0.62590081031803
N            4.83672949678190       -0.44355185599489       -0.09806511424100
C            3.88425608110116       -0.90393810689822        0.36412102559399
N            1.34907438541519       -1.04050648493688        1.36126695292471
C            0.51587055693186       -0.18786443217631        0.86373829307727
C           -0.15273284168722        0.69905687963486        0.36154759381752
C           -1.13231079013551        1.54793011014539       -0.14140276932977
O           -1.03842061762795        2.59059432699537       -0.73993061532865
N           -2.49373419678507        1.00062837664671        0.16396576913195
C           -3.57709456781564        1.97797867767773        0.24939063567041
C           -2.72449392750567       -0.32555237366021        0.27423369920571
O           -3.76143108270863       -0.99225356910669        0.49071790138733
N           -1.90221623109438       -1.38679231278953        0.26511440637716
C           -1.71853349946856       -2.16511778000258       -0.89950328446437
H            6.68704167274695        0.31611471550324        0.19027286713224
H            6.44713581914510       -0.61331066554083       -1.31470026145730
H            5.74674486177556        1.02173245206592       -1.15401062240852
H            2.33791387457603       -1.03415426126347        1.04529545057550
H           -3.66683603076067        2.35241840795771        1.27308763189472
H           -3.31894849008042        2.81387813307141       -0.40413944366451
H           -4.53183115641511        1.54945554278104       -0.05617393684596
H           -0.66467147085537       -1.99748866834469       -1.11851204061341
H           -2.32382916602062       -1.87361563860127       -1.76671599156651
H           -1.88344953347399       -3.22263281623278       -0.68427924654524
H            1.00154302219297       -1.79572420838087        1.92761582218960
