  72
        -99.34024276
 N         -2.4821248471        2.5663887866        2.5914937774
 C         -1.8997808460        2.0868587074        1.5066507606
 C         -2.8781566246        1.9582283389        0.3876818443
 C         -3.4603883136        0.5429559765        0.3555975136
 C         -4.4856563073        0.2470498699       -0.5436648153
 C         -5.0536924268       -1.0146796268       -0.5941118755
 O         -6.0447949616       -1.3920226677       -1.4277072106
 C         -6.6296899799       -0.4396089291       -2.2830399012
 C         -4.5854812876       -2.0284558220        0.2855902302
 O         -5.1926129681       -3.2246151929        0.1643643365
 C         -4.8287469284       -4.2648859027        1.0423229139
 C         -3.5662948561       -1.7242649706        1.1719931488
 C         -3.0099494130       -0.4518617400        1.2060509496
 C         -2.2869952612        2.3204746548       -0.9871916552
 C         -1.3774527325        1.2285650917       -1.5760378954
 C         -0.0657527502        1.1362364279       -0.9014028801
 N          0.5142697836        0.0158147845       -0.4760389567
 C          1.9054620769        0.0310760362       -0.0899049297
 C          2.8218713958       -0.3112241289       -1.2818672711
 C          4.2674938662       -0.1937760788       -0.8906188417
 C          4.9212788581        1.0249179504       -0.9646479782
 C          6.2553972599        1.1377914512       -0.6047308266
 C          6.9624150376        0.0311496690       -0.1582382850
 O          8.2604457817        0.0211257144        0.2020923996
 C          9.0098567325        1.2096061026        0.0990826927
 C          6.2961714856       -1.2211224358       -0.0653213016
 O          7.0551347645       -2.2438666253        0.3793891497
 C          6.4916716138       -3.5306042244        0.4661154478
 C          4.9622155258       -1.3094006521       -0.4292876797
 C         -0.1148409188       -1.2736268118       -0.6279590421
 C         -4.0000037477        2.9336176728        0.8728789332
 C         -3.8953432361        2.7755898103        2.3978060882
 C         -3.7758702260        4.3880375085        0.4729295926
 H         -4.8473493561        1.0158493252       -1.2072207652
 H         -7.0693793967        0.3899247160       -1.7206926110
 H         -7.4176574237       -0.9702275235       -2.8138849070
 H         -5.9069231765       -0.0499653787       -3.0074945944
 H         -4.9942783607       -3.9838118669        2.0863788117
 H         -5.4740201594       -5.1027230215        0.7862880663
 H         -3.7829040615       -4.5575209153        0.9034022747
 H         -3.2055839287       -2.4649685943        1.8659899124
 H         -2.2316223396       -0.2475991498        1.9248161972
 H         -3.1098236128        2.4811730581       -1.6826916436
 H         -1.7252257159        3.2510555931       -0.9081670727
 H         -1.9030240403        0.2758338147       -1.5713259927
 H         -1.1949495212        1.5019172803       -2.6236844793
 H         -0.8597387647        1.8239409303        1.4798869768
 H          0.5026583825        2.0458914554       -0.7845739093
 H          2.0643810642       -0.6910999779        0.7142277965
 H          2.1670527495        1.0234796793        0.2834514530
 H          2.6011473679        0.3823836710       -2.0956362928
 H          2.6076555157       -1.3243751411       -1.6239271228
 H          4.3975722283        1.8988764869       -1.3216815535
 H          6.7400697233        2.0969890258       -0.6842277108
 H          8.6152814881        1.9910692439        0.7557061386
 H          9.0379979095        1.5771584814       -0.9311817004
 H         10.0174261496        0.9475782462        0.4160667718
 H          7.2920077914       -4.1766466827        0.8215185332
 H          5.6616205189       -3.5586722716        1.1794674726
 H          6.1478376129       -3.8849995694       -0.5107435665
 H          4.4505231684       -2.2574601296       -0.3738909849
 H         -0.2013314793       -1.5554549081       -1.6800893824
 H         -1.1131557247       -1.2620325058       -0.1853550220
 H          0.4813782515       -2.0246502646       -0.1157595134
 H         -4.9765742345        2.6088180690        0.5152718663
 H         -4.2397288366        3.6506784684        2.9485319876
 H         -4.4341294745        1.8842202222        2.7643209062
 H         -4.1564465665        0.0681168476        3.8335919357
 H         -2.8041095842        4.7422885377        0.8084607592
 H         -3.8435372264        4.5161728536       -0.6028188702
 H         -4.5422279837        5.0096864506        0.9291241579
 H         -2.0655007640        2.5897185548        3.5093596162
