25
 energy: 0.548775931135 xtb: 6.6.1 (8d0f1dd)
C            3.18946982324646        1.35043922810099        0.09400048525029
N            2.39286366012103        0.09172017536595        0.04723631797471
C            2.64497517628718       -1.30438030206273        0.04771602540866
N            1.43352396370840       -2.00351300909355        0.01219046367611
C            0.42413048193603       -1.11619375290664       -0.00988446356678
C            0.98021621717672        0.16058732472745        0.01073742286748
C            0.15726909686437        1.30904645427075       -0.01436815290629
O            0.53497426749500        2.48139143837731       -0.03277369086661
N           -1.23536322433397        0.99716243967592       -0.03478636752393
C           -2.15323745853754        2.12475590988752       -0.04654293308342
C           -1.80437379033952       -0.23589540841882       -0.05279830138067
O           -3.00801844092069       -0.40641675616522       -0.07694287948892
N           -0.93271676110741       -1.34248652884025       -0.04362742496771
C           -1.54499443391839       -2.65315712066088       -0.06544599693918
H            3.70706100963678        1.51553088081089        1.04896087666863
H            3.96418089974976        1.37216646721637       -0.68602012072780
H            2.50393282651641        2.17632458113938       -0.05520851536764
H            3.58920451767088       -1.79065451179737        0.04789020697852
H           -1.56554389614164        3.03771827770899       -0.02466158487294
H           -2.76266555053877        2.10553579453150       -0.94847863991910
H           -2.79530363430657        2.08861526232029        0.83010132807987
H           -1.29311472527453       -3.22940021132978        0.82685832909161
H           -1.26562799011407       -3.21041517158499       -0.96165238727058
H           -2.62554888917083       -2.48968310631418       -0.08056122231325
H            1.29868967595710       -3.00445807331034       -0.00351869351235
