72
 energy: -99.371575058406 gnorm: 0.007138911774 xtb: 6.6.1 (8d0f1dd)
N           -1.69530212168254        2.84494654619703        2.08936549603082
C           -1.79728514502432        1.94016676123603        1.22843817811215
C           -2.99149028823119        1.80893836694169        0.32137598575364
C           -3.50539042039935        0.38319215112800        0.33203511373632
C           -4.40488364331143       -0.04403224031260       -0.64472713805388
C           -4.92868829947701       -1.32695062183164       -0.63687676940881
O           -5.81115237665130       -1.81385267297130       -1.52953238675122
C           -6.33431370687123       -0.96375885981042       -2.52333148058528
C           -4.53419746584178       -2.23846231753269        0.38287556446617
O           -5.08660178718228       -3.46205775900527        0.30996422176164
C           -4.79676997417465       -4.41071863558755        1.31073800430339
C           -3.64400632070058       -1.80392973340377        1.35390029575712
C           -3.14499770047218       -0.50977996274375        1.33231904449200
C           -2.41014379632887        2.16119965098239       -1.11244673831642
C           -1.52708053552426        1.11955923315067       -1.64019262694851
C           -0.06133894310577        1.13589846791250       -1.45659753835238
N            0.42775917911389        0.15514627939290       -0.48038429658546
C            1.83582723296574        0.25233465758411       -0.18843734174332
C            2.78824103578060       -0.21969882819283       -1.31348613992101
C            4.21277561790103       -0.04240416178808       -0.88754382704331
C            4.87601909707134        1.15659462924917       -1.11676912971603
C            6.18581098866163        1.33649296398452       -0.70527760559812
C            6.86569508312707        0.31929741430225       -0.04689507601349
O            8.13319991769669        0.37880399892756        0.39331927614303
C            8.88722776007689        1.54975241934200        0.17753856611701
C            6.19336752926536       -0.91305278196942        0.19930565231579
O            6.92487651682559       -1.84308788950530        0.83878729675083
C            6.36018268815345       -3.10403471594784        1.11079271373313
C            4.88105582066799       -1.06740817187132       -0.22254914545313
C           -0.06838142117699       -1.18642345298739       -0.67626920986538
C           -4.17691306768728        2.75579351516303        0.65907434146229
C           -4.70047659420034        2.48184474150398        2.06874856469051
C           -3.84468358905989        4.23747622454416        0.51068922064407
H           -4.70908360212476        0.63937978576544       -1.42028079221421
H           -6.84307087362088       -0.10019856478940       -2.08442639873495
H           -7.05617311934582       -1.56611871221625       -3.07141351353956
H           -5.55494161883114       -0.62062271737418       -3.21106466534268
H           -5.10212267421802       -4.05523637018030        2.29922665929656
H           -5.37502943903469       -5.29509700079620        1.05045612061485
H           -3.73244281878591       -4.66464823541997        1.32597873253368
H           -3.33831021825737       -2.46682142375507        2.14683110992675
H           -2.48124113658421       -0.20027037142063        2.12415480997578
H           -3.26653420908840        2.30539504319603       -1.77262659258979
H           -1.87482565652077        3.10611911997687       -1.01069611603776
H           -1.01758464600583        1.20417644300368        1.01372205469882
H           -1.96524234642812        0.27598314049038       -2.14659609148903
H            0.26689910476464        2.11986573589131       -1.10855118926191
H            0.40775768296784        0.93947230780066       -2.43842344442167
H            2.02904128317173       -0.34856006421935        0.70513116140926
H            2.06341789861694        1.29463168087547        0.05071564888431
H            2.59802022568692        0.36995409731720       -2.21169569845240
H            2.58980103382940       -1.26944145986344       -1.53302986637470
H            4.37151236614554        1.95952200123452       -1.63230615406695
H            6.67532843669779        2.27550561354422       -0.90551756527528
H            8.43830224556597        2.41277116487444        0.67825167438330
H            8.99793666269163        1.76274060501167       -0.88979734285749
H            9.86598223679821        1.35044379635076        0.60965496708047
H            7.14157612105688       -3.67191368848801        1.61212323156081
H            5.49260136091478       -3.01997301261858        1.77267575005074
H            6.07091275368010       -3.62040344197344        0.19045187472119
H            4.36567047726165       -1.99877245095125       -0.04735176334596
H            0.12900673509882       -1.57219602687557       -1.68411220000446
H           -1.14631282648934       -1.19419737815090       -0.50917488444309
H            0.39887531471316       -1.84824841949136        0.05001016233642
H           -4.98000813599959        2.51483603664364       -0.04803829730493
H           -3.95218082168037        2.76352411570496        2.80357130848550
H           -4.94755959358187        1.43067253799627        2.19863490034015
H           -5.59768949147363        3.06885501474499        2.24678099880623
H           -3.00534874949457        4.49833664392770        1.14815881158967
H           -3.61339054346599        4.50007779145868       -0.51833665173299
H           -4.70439154822000        4.82807474722180        0.81747185468542
H           -0.84058354361896        2.88873622197022        2.63275115279756
