  25
        -42.15312662
 C          2.8297116862        1.2555273637       -0.5883120468
 N          2.0943636972        0.0540384266       -0.2909745904
 C          2.5962368259       -1.1683383295       -0.2883419382
 N          1.6331058050       -2.0398455725        0.0338165000
 C          0.4533739706       -1.3516890261        0.2143604614
 C          0.7482032504       -0.0143230514       -0.0211393559
 C         -0.0609980470        1.2037636506        0.3120093109
 O          0.4612920973        2.0923172392        0.9455871001
 N         -1.3687216536        1.2053020610       -0.0696871852
 C         -2.2469449779        2.2269483463        0.4806892836
 C         -1.9207848650        0.3837585046       -1.0415735112
 O         -3.0748259683        0.4144921377       -1.3332013645
 N         -0.7538798424       -1.9179857749        0.4189205341
 C         -1.0682519067       -2.8114958330        1.2481270926
 H          3.8816914929        1.1116760752       -0.3481184051
 H          2.7362187012        1.5040715257       -1.6480159353
 H          2.4292644603        2.0789820472        0.0046538868
 H          3.6131063031       -1.4242490844       -0.5174746487
 H         -1.6529089338        2.9295994520        1.0592047912
 H         -2.7580389766        2.7433783115       -0.3298989048
 H         -2.9963827307        1.7575633679        1.1175667404
 H         -0.4082624993       -3.2096192450        2.0192961392
 H         -1.1802280593       -0.2576790939       -1.5420806930
 H         -2.0771893473       -3.1954441325        1.2033005310
 H          1.7415373348       -3.0435339592        0.0914577209
