  25
        -42.08311081
 C          3.1551740294        1.0660060502        0.0085020709
 N          2.2870013440        0.0619157653        0.0061648019
 C          2.5534817292       -1.2642293581        0.0142262324
 N          1.3913210767       -1.9649462626        0.0112001411
 C          0.3564075395       -1.0760485101       -0.0003511128
 C          0.9013022526        0.1937891130       -0.0022636112
 C          0.0764330980        1.3850064081       -0.0076253104
 O          0.4839663022        2.5210178374       -0.0183024821
 N         -1.2769362609        1.0518551804        0.0062387835
 C         -2.2362366523        2.1507699544        0.0271957879
 C         -1.8485559889       -0.2067058632        0.0032476534
 O         -3.0327227343       -0.3806666077        0.0080508405
 N         -0.9619262823       -1.3133038971       -0.0043075509
 C         -1.5117537206       -2.6546986114       -0.0051992133
 H          2.7688028067        2.0702957792       -0.0035551184
 H          4.2086531653        0.8568259303        0.0152003499
 H          3.8058361797        4.3794841062       -0.6864422067
 H          3.5323635758       -1.6969447042        0.0266554154
 H         -1.6786889677        3.0835541611        0.0401398608
 H         -2.8730566688        2.1023417566       -0.8548113616
 H         -2.8651859943        2.0714928514        0.9132812579
 H         -1.1822590170       -3.2033194125        0.8777159339
 H         -1.2215493006       -3.1879781993       -0.9109376838
 H         -2.5967919422       -2.5605833049        0.0187455588
 H          1.3222486389       -2.9720959404        0.0089647600
