  72
        -99.32379747
 N         -1.0507746378        4.2650683479        2.5136348306
 C         -1.6574954432        3.8356910578        1.5619101177
 C         -2.3258909530        3.5892978802        0.4641720375
 C         -4.0569055701        0.1002354107        0.9979401672
 C         -4.7343709668       -0.2184119034       -0.1698828410
 C         -4.8283429048       -1.5375561780       -0.5902148358
 O         -5.4674399150       -1.9634191312       -1.6977003229
 C         -6.1784332058       -1.0340775824       -2.4812623037
 C         -4.2201416226       -2.5594015589        0.1910394395
 O         -4.3694984341       -3.8093351430       -0.2906602094
 C         -3.8772981769       -4.8981987174        0.4547718872
 C         -3.5470927898       -2.2162835506        1.3547108681
 C         -3.4668037318       -0.8890508380        1.7576853337
 C         -1.6128103355        3.2794034293       -0.8255367724
 C         -1.3583350926        1.7775564892       -1.0106509406
 C         -0.4184620644        1.2259050209        0.0704286211
 N          0.2680903875        0.0410742371       -0.3836900486
 C          1.6540096557       -0.1272710876       -0.0205770420
 C          2.5005542954       -0.5379331980       -1.2442239945
 C          3.9623004502       -0.4436565378       -0.9238421398
 C          4.6485256818        0.7491445210       -1.1110207379
 C          5.9921055516        0.8573447253       -0.7926746084
 C          6.6836638080       -0.2287333586       -0.2719863861
 O          7.9843825440       -0.2418018491        0.0695035367
 C          8.7590064925        0.9200623796       -0.1174131646
 C          5.9890783615       -1.4554763206       -0.0696643595
 O          6.7341722039       -2.4555823098        0.4367946521
 C          6.1462698613       -3.7162227238        0.6530959944
 C          4.6432804112       -1.5373049568       -0.3967102118
 C         -0.5168177390       -1.1646590013       -0.3663787687
 C         -3.8400041503        3.6367625548        0.4594440359
 C         -4.4594207656        2.9705786476        1.6236252232
 C         -4.2863158889        5.1229408691        0.4248153874
 H         -5.2019194766        0.5673878352       -0.7416179005
 H         -6.9540657024       -0.5286822231       -1.8979301665
 H         -6.6454786566       -1.6159819481       -3.2734083556
 H         -5.5105938488       -0.2893728626       -2.9262496479
 H         -4.3389025362       -4.9463988918        1.4453982570
 H         -4.1482502008       -5.7862680616       -0.1129988685
 H         -2.7886722834       -4.8536261522        0.5598790432
 H         -3.0910823389       -2.9791070036        1.9647731274
 H         -2.9513993922       -0.6417084931        2.6730215631
 H         -2.2243649311        3.6396179655       -1.6549825980
 H         -0.6579355482        3.8078757628       -0.8559556797
 H         -2.3056779523        1.2368247408       -0.9964529307
 H         -0.8891746724        1.6221467574       -1.9831211819
 H         -0.9927470439        1.0251040697        0.9879528548
 H          0.3288967166        1.9892472784        0.2975357397
 H          1.7719098250       -0.8827054606        0.7686731978
 H          2.0464840033        0.8180064151        0.3592586914
 H          2.2553765464        0.1368389590       -2.0648400079
 H          2.2437390306       -1.5534853669       -1.5451091933
 H          4.1337799726        1.6050091501       -1.5201856821
 H          6.4978329901        1.7947118409       -0.9576888128
 H          8.3801782011        1.7548533849        0.4800513283
 H          8.7948833434        1.2116668143       -1.1713514855
 H          9.7607549893        0.6604964541        0.2197342254
 H          6.9413994132       -4.3448863681        1.0493470735
 H          5.3322862940       -3.6592079094        1.3826011594
 H          5.7725022017       -4.1495309031       -0.2796573122
 H          4.1100925617       -2.4639219418       -0.2531825237
 H         -1.4721756294       -0.9902557830       -0.8564596015
 H         -0.7158723976       -1.5124295260        0.6578138000
 H          0.0103341437       -1.9497515639       -0.9039597847
 H         -4.1974932983        3.1726825631       -0.4671338734
 H         -3.9846854469        3.0380436295        2.5864726262
 H         -4.0328002684        1.1527652923        1.3207995093
 H         -5.5238464719        2.8151648903        1.6138314157
 H         -3.9767513447        5.6249069315        1.3376450726
 H         -3.8254529962        5.6229625491       -0.4232246849
 H         -5.3666566494        5.1902244875        0.3310848079
 H         -0.6914961218        3.7238480265        3.2855305053
