25
 energy: 105.162692689835 xtb: 6.6.1 (8d0f1dd)
C            2.63837254649195        1.63376043483325       -0.03041620474439
N            2.49014478886720        0.25502733890806        0.03602018053026
C            3.77219714030198       -0.35425744370383       -0.09546771152345
N            1.26954934123920       -2.25631117187483        0.02900792151940
C            0.43112728922953       -1.31218574895955        0.03172286774134
C            1.00492426662840        0.00573609233145        0.07772252809760
C            0.15017044995675        1.13986642381483        0.09821337362860
O            0.58605081288201        2.30947707820717        0.10792827781381
N           -1.25928732624974        0.97419961745112        0.06235739837043
C           -2.16068109513912        2.12423923179316        0.08280938449087
C           -1.86679483848699       -0.25734138153859       -0.01739593081722
O           -3.07513647440039       -0.35913467959052       -0.07732254134623
N           -1.01692461982224       -1.35468130697360       -0.01220316525320
C           -1.69087509145511       -2.63188480999457       -0.09130515549273
H            2.61515770665903        2.20057269392334        0.86791279268242
H            4.90930282998949        0.23826057837980        0.32363917287579
H            3.00005312292151        2.00684139450749       -0.97125609791853
H            4.21141946063890       -1.31725881793596       -0.23695440143195
H           -1.55856909755339        3.02462196390348        0.14033804617360
H           -2.77428217616996        2.15768394891879       -0.82423951492666
H           -2.84033062636030        2.06513371807952        0.94017974361217
H           -1.52903938821373       -3.23963227229774        0.79977729481502
H           -1.40405435037437       -3.17838099038706       -0.99143435028685
H           -2.75646549316651       -2.39154676042760       -0.14559620293835
H            0.93626764927281       -3.20328425481658        0.02186298643875
