25
 energy: 131.247569896811 xtb: 6.6.1 (8d0f1dd)
C            2.04097087422806        1.82910294571534        0.14871917327014
N            2.07279287368071        0.42270469645271        0.11312147295232
C            5.17217586469401       -0.61788384466441       -0.28884941114370
N            1.02881697149210       -2.32778656842770        0.04683523622819
C            0.27386627816125       -1.31952457236929        0.03149917466458
C            0.82322804863370        0.02020621807215        0.07231164223230
C           -0.04240511325558        1.13193462058830        0.08180827396627
O            0.65328012597582        2.26698964897180        0.13160539270696
N           -1.37342447350251        1.03938932552329        0.04711610387030
C           -2.24983142054654        2.19498609789059        0.06410581413097
C           -1.96953529776414       -0.23222431074904       -0.02194134248554
O           -3.17694888967459       -0.31251212970946       -0.07698568581346
N           -1.13850770176634       -1.32760797717227       -0.02495744920710
C           -1.78336384687930       -2.63161605028647       -0.10117713556384
H            2.52011158497449        2.21777600318229        1.05740115699301
H            6.19599390331520       -0.24424028331394       -0.37677226877833
H            2.55863376253337        2.26426957987818       -0.71726043930191
H            4.97176534816043       -1.69075247409512       -0.22361863269317
H           -1.65238409245589        3.10180146387379        0.11416127729314
H           -2.86519558357036        2.19562031286390       -0.83572388733307
H           -2.91317975106011        2.12954461667482        0.92674700031065
H           -1.56662447175893       -3.21439106605769        0.79628807358739
H           -1.43518541886380       -3.17111993859963       -0.98392851531189
H           -2.85761315893965       -2.48022006687917       -0.17601182199739
H            0.62477788915833       -3.25541745861659        0.02254070961344
