25
 energy: 94.838935969946 xtb: 6.6.1 (8d0f1dd)
C            2.74589339348164        1.59447765327165        0.01601554369867
N            2.45452082072739        0.21663825627320        0.01859129423915
C            3.62825251986089       -0.44305497034340       -0.09690971587657
N            1.33050461111227       -2.20063338340989        0.02032471902065
C            0.45540404905951       -1.28380425924354        0.02196256803294
C            1.02734148167377        0.03172316454138        0.06612467790735
C            0.14648021334854        1.16088024273756        0.10472306021174
O            0.56248016908094        2.33005553408112        0.16012300602176
N           -1.24073008968341        0.96901169617969        0.05204590408443
C           -2.15932548943391        2.11869735284074        0.06334007478485
C           -1.83325755865016       -0.26068414613238       -0.02310451599991
O           -3.03963491103607       -0.36856011008717       -0.08585593301770
N           -0.97863605708805       -1.35839584510116       -0.01008191023889
C           -1.64805552160035       -2.63554256159262       -0.08603796121121
H            2.82893976753569        2.07898433196391        0.95518490086144
H            4.72490430747612        0.33656432535515        0.24986518649163
H            2.91025163876629        2.08735104708901       -0.90094593620664
H            4.11740774055012       -1.41770865621552       -0.23949284455591
H           -1.54674077476692        3.00967187448944        0.11640521951054
H           -2.78176264690574        2.16327647039274       -0.83981529532336
H           -2.83318489714672        2.06668058870914        0.92424917378497
H           -1.45634093696656       -3.24594267375526        0.79544421605641
H           -1.35850411163028       -3.17503584667801       -0.99073159816997
H           -2.71999048666809       -2.40984434167665       -0.10829676585610
H            1.02890958151603       -3.15942776595206        0.04071925911516
