25
 energy: 129.235313503155 xtb: 6.6.1 (8d0f1dd)
C            2.06189152801853        1.80239315557637        0.12255117203205
N            2.09327125462614        0.39352283481814        0.09610889469210
C            5.00342498573314       -0.48853221076967       -0.28181328441820
N            1.03330102722276       -2.35429202078205        0.03794329494199
C            0.27475731225181       -1.33970821765733        0.03094186887685
C            0.84099292723919        0.00014560174661        0.06447581440906
C           -0.02801758051115        1.11488017929296        0.06913731911867
O            0.67067966834710        2.24854375522296        0.12051771776404
N           -1.36551923726617        1.03929567272054        0.04413562503075
C           -2.24518278508370        2.19478162855513        0.06457197244162
C           -1.96532172714360       -0.22845541685944       -0.02318975360978
O           -3.17378166462070       -0.30120399667760       -0.07706734190203
N           -1.14497495771617       -1.33260346744189       -0.02076537703415
C           -1.79387462055183       -2.63262304420564       -0.10168399873832
H            2.51086622545186        2.21021234144463        1.05468277442965
H            6.07470312219051       -0.21520405514612       -0.34106426005846
H            2.61141586963322        2.26360337001638       -0.71228181458080
H            4.93706164364253       -1.59620905712127       -0.21351084349924
H           -1.64797679273693        3.10044940531003        0.11619904440611
H           -2.86625420064177        2.20396694841436       -0.83297597796046
H           -2.90478863436111        2.12919960168913        0.93142900501955
H           -1.58276933949676       -3.22114350150747        0.79213007600725
H           -1.44395214303104       -3.17238482535420       -0.98531118413315
H           -2.86430673174145       -2.46642482013841       -0.17955187195502
H            0.58373854015661       -3.26931318794522        0.01451362262719
