25
 energy: 0.000000000000 xtb: 6.6.1 (8d0f1dd)
C            3.23720132972391        1.16630909158653        0.08434468864950
N            2.29877796055224        0.07527476373246        0.03981602671198
C            2.58028186251803       -1.21425391179017        0.03006175752192
N            1.43813944744728       -1.93419254010258        0.00098261751768
C            0.39035684826767       -1.05887462812143       -0.00790371763344
C            0.93510047688824        0.21347817468824        0.01709077332874
C            0.09450143016486        1.40504290868848       -0.00410946993748
O            0.49712746915594        2.54126690785742       -0.00342325656480
N           -1.25076628431515        1.06271869620815       -0.03085477937476
C           -2.21907191394203        2.15522079838987       -0.05001256521996
C           -1.81739470187490       -0.20012724136556       -0.04692818139228
O           -2.99983858926755       -0.37846413507442       -0.07008877579474
N           -0.92618577614240       -1.30210203518959       -0.03682761236648
C           -1.46982251276835       -2.64643077634382       -0.06029819901142
H            3.71247229913541        1.21471443890471        1.06488839270555
H            4.00791460421487        1.03430799217987       -0.67357688121503
H            2.69909982127087        2.09770098766290       -0.09130154035862
H            3.56654087521359       -1.63682977417947        0.04233139674524
H           -1.67107945562430        3.09322822573871       -0.02552706696334
H           -2.82428927394145        2.09428605349656       -0.95318074103337
H           -2.87644002486466        2.07745706351925        0.81450059976605
H           -1.17061985538665       -3.19584861009707        0.83242224714061
H           -1.14560246782873       -3.17511580834413       -0.95688266944647
H           -2.55549768731684       -2.55659960601237       -0.07459039105944
H            1.38130842369251       -2.94313824728853       -0.01389874052104
25
 energy: 0.001092309291 xtb: 6.6.1 (8d0f1dd)
C            3.23011915203802        1.17773192235016        0.08568338158762
N            2.29173469862817        0.09266267454540        0.03767967313484
C            2.59462500876221       -1.23359629869367        0.03093785676998
N            1.46086425578104       -1.99851361068597        0.00121232482808
C            0.40350457036870       -1.09233269798927       -0.00866753965199
C            0.91685007080857        0.20780471440387        0.01488527142341
C            0.09242348824218        1.39769010712241       -0.00492551755885
O            0.49075029671881        2.56411395345079       -0.00321802990776
N           -1.27030384844516        1.06573571688444       -0.03126023591710
C           -2.23168524972551        2.16771904859669       -0.04990414212546
C           -1.82613586877377       -0.18837934652135       -0.04788024064287
O           -3.02391541275358       -0.36508218240889       -0.07143517211135
N           -0.93701047350673       -1.29966793293143       -0.03749319543955
C           -1.48672825744972       -2.63002855438439       -0.06030149998790
H            3.71384532701170        1.22035093709181        1.06552345864395
H            3.99856139445582        1.03926230357243       -0.67682159321885
H            2.69905742321779        2.11225779611749       -0.08773264522982
H            3.57363672544630       -1.64046855434845        0.04454458731922
H           -1.67773110251045        3.10447619851498       -0.02543425551847
H           -2.84087681674356        2.11852523052288       -0.95260887426348
H           -2.89303965841441        2.10170093249400        0.81403217680771
H           -1.17607408895803       -3.17394330442093        0.83246688226515
H           -1.15145298544462       -3.15381877791732       -0.95627153666014
H           -2.57164350158483       -2.53489399612360       -0.07436529093334
H            1.53283915780348       -3.07027749049806       -0.01161193141841
25
 energy: 15.625981710809 xtb: 6.6.1 (8d0f1dd)
C            3.22156629598608        1.18283249209229        0.08647347335183
N            2.27861262190008        0.10602848546926        0.03398789831353
C            2.59873430197728       -1.24591178023014        0.03288825687720
N            1.48073456390635       -2.06708113438264        0.00189250543339
C            0.41343626268907       -1.13343592501969       -0.00958009993433
C            0.89186048739966        0.19211072470020        0.01190178940133
C            0.08929235114486        1.37859697016707       -0.00570320158882
O            0.47916610062509        2.56121813748530       -0.00258257183016
N           -1.29695858632049        1.07652213148666       -0.03174349016921
C           -2.24732953087946        2.18888139978640       -0.04986227969308
C           -1.83354521762540       -0.16798643111197       -0.04882925349946
O           -3.03783930962289       -0.34903561063013       -0.07321161705063
N           -0.95185603738394       -1.28717362825269       -0.03813345350395
C           -1.50891203297404       -2.60649334114582       -0.06029022996088
H            3.71426937904985        1.22298047589005        1.06444632525373
H            3.98772830213224        1.04421939005626       -0.68101932823136
H            2.69994428580640        2.12396190802239       -0.08212148652104
H            3.57634829007906       -1.63379779973502        0.04769643939443
H           -1.68583643846989        3.12278119639829       -0.02530850516797
H           -2.86024254261923        2.14904291543788       -0.95189752609078
H           -2.91231874360586        2.13220873935315        0.81333115577697
H           -1.18725321202409       -3.14835922043403        0.83072207826846
H           -1.16325907628274       -3.12908734776961       -0.95390491388933
H           -2.59298038642270       -2.51283649950101       -0.07413753596140
H            1.75885217650718       -3.21115745938843       -0.00798051678388
25
 energy: 29.024594565562 xtb: 6.6.1 (8d0f1dd)
C            3.21628339858089        1.18244249580543        0.08630371299499
N            2.27447807947810        0.10475312357213        0.03190632109178
C            2.59761311419814       -1.25113113448702        0.03452025438842
N            1.49262249392861       -2.09757839948327        0.00262274529294
C            0.41868232518940       -1.15342826904267       -0.01003338090089
C            0.88379300149858        0.17949989939577        0.01069127274305
C            0.08759389316672        1.36857808562844       -0.00573208271994
O            0.47452984974378        2.55035471722678       -0.00202454460830
N           -1.31059806659928        1.08771231167482       -0.03210172849923
C           -2.25728453849353        2.20296167685409       -0.05003212059674
C           -1.83730444671162       -0.15755649539087       -0.04959041574811
O           -3.04043754269940       -0.34707494217591       -0.07472780746809
N           -0.95582383978412       -1.27685365266144       -0.03839795024005
C           -1.52188930598752       -2.59293969094470       -0.06014270008775
H            3.71168744101286        1.22285264431518        1.06286746883912
H            3.97974808832859        1.04938376260616       -0.68456475816740
H            2.69726904056442        2.12748203676249       -0.07750889655441
H            3.58127531345270       -1.62795641594961        0.04968409267356
H           -1.69483295834201        3.13598008113699       -0.02537331250973
H           -2.87248226319662        2.16685651752579       -0.95110660298766
H           -2.92443065857420        2.14995034118949        0.81219901147685
H           -1.19789764512898       -3.13383688260004        0.83052642476840
H           -1.17437369429384       -3.11528091382553       -0.95310525888836
H           -2.60589033411156       -2.49943770925081       -0.07381139995711
H            1.88988355975233       -3.28670439913768       -0.00603443214077
25
 energy: 35.671008926265 xtb: 6.6.1 (8d0f1dd)
C            3.21557328409036        1.18068041190594        0.08612210847268
N            2.27424384585211        0.10154343420888        0.03122519189502
C            2.59146272676497       -1.25213846069624        0.03573474452088
N            1.49185753906698       -2.10210296418191        0.00326061976033
C            0.41710339849525       -1.15440397648103       -0.01029841662200
C            0.88289212857368        0.17721919072420        0.01048566701144
C            0.08666808348757        1.36893922081332       -0.00556881855488
O            0.47303266739057        2.54735352305310       -0.00171666981210
N           -1.31471440277787        1.09460296636234       -0.03218528838245
C           -2.26079821838236        2.20811438462613       -0.05016178334875
C           -1.84072579467213       -0.15289299810323       -0.04983463661643
O           -3.04174560932742       -0.34707057578518       -0.07525817773236
N           -0.95751582084442       -1.26947593640248       -0.03846056098439
C           -1.52445078384181       -2.58819381541020       -0.06003672952226
H            3.71067459298997        1.22162693841790        1.06230572358021
H            3.97775267359648        1.05064267615167       -0.68587166478115
H            2.69624959034368        2.12664778491983       -0.07618366333718
H            3.57841094609763       -1.62543355271031        0.04988139782125
H           -1.69903243803836        3.14109213113565       -0.02550685651396
H           -2.87586021413992        2.17080484081104       -0.95130896738108
H           -2.92774326549064        2.15394955805403        0.81221721089313
H           -1.19950230667554       -3.12842126221501        0.83049846474645
H           -1.17624847649899       -3.11008731866449       -0.95281044356966
H           -2.60851527075480       -2.49766945377230       -0.07363955629454
H            1.94314542966747       -3.32629795801762       -0.00585498305362
25
 energy: 42.059786781823 xtb: 6.6.1 (8d0f1dd)
C            3.21389717718952        1.17825382998068        0.08577079076555
N            2.26863408136889        0.10131883200303        0.03066052534127
C            2.57664039376841       -1.25122354879151        0.03784120002413
N            1.48751787789361       -2.11045936800502        0.00547497057062
C            0.41201967739342       -1.15474910967994       -0.01073195509608
C            0.87654985067021        0.17810930872954        0.01029636828347
C            0.08454619218501        1.37168587061602       -0.00522580419180
O            0.46874537986800        2.54841954233509       -0.00170246328020
N           -1.32114511897775        1.10410162544210       -0.03214787105603
C           -2.26501165184713        2.21612146584729       -0.05021671143082
C           -1.84587880573494       -0.14467248167985       -0.05001671998420
O           -3.04557347102470       -0.34211877664229       -0.07551955516729
N           -0.96356780426763       -1.25849371736723       -0.03882521233656
C           -1.52822826771987       -2.58078189127029       -0.06005917625301
H            3.70913099424395        1.21845807467732        1.06153846653711
H            3.97515252999629        1.04813146387506       -0.68675417749923
H            2.69809354619456        2.12710107964892       -0.07576407516241
H            3.56660763767356       -1.62045056644489        0.04949810040114
H           -1.70287721150328        3.14859085627178       -0.02555703824325
H           -2.87961112071843        2.17727487255325       -0.95163381088376
H           -2.93147248317974        2.16050552209273        0.81248702301121
H           -1.19925357223875       -3.11994054736281        0.82956898822999
H           -1.17633226448201       -3.10193514931164       -0.95173844372834
H           -2.61235998942880       -2.49665712849818       -0.07359245998602
H            2.04599072765003       -3.40756127027510       -0.00661704667093
25
 energy: 38.294522126497 xtb: 6.6.1 (8d0f1dd)
C            3.21144835388847        1.17271123896481        0.08540230109527
N            2.25399975582389        0.10228799884899        0.03054355757192
C            2.53736678332866       -1.24704193336433        0.03922961736953
N            1.46955952156915       -2.11740379055320        0.00845763961491
C            0.39889282198269       -1.14579070928166       -0.01137857304297
C            0.86348276131682        0.18712406097463        0.01010907028239
C            0.08087324873800        1.38207200050337       -0.00470677487631
O            0.45931578666903        2.55454426929619       -0.00189244165363
N           -1.32998274176008        1.12182298734081       -0.03207995247621
C           -2.27081028025798        2.22920540184158       -0.05036230203778
C           -1.85311808758558       -0.13064379240372       -0.05005068233496
O           -3.05114164285964       -0.33178636364197       -0.07577283243332
N           -0.97566963538387       -1.23675074927485       -0.03907658522562
C           -1.53358741585227       -2.56751617255914       -0.05993934288163
H            3.70679475618800        1.21227745484076        1.06025908161007
H            3.97135849832046        1.04205382138805       -0.68760983848513
H            2.70369699382232        2.12788860520258       -0.07516749523822
H            3.53374486673877       -1.61475880451900        0.04871522395963
H           -1.70750787300931        3.16016926961264       -0.02569134087505
H           -2.88394926016387        2.18616400265422       -0.95230835228198
H           -2.93580502962672        2.16952997059818        0.81295175772867
H           -1.19813730292727       -3.10686471390798        0.82714897515884
H           -1.17562491625729       -3.08923025450734       -0.94887601803067
H           -2.61782452309475       -2.49507825751151       -0.07347124255406
H            2.25483886536480       -3.57595675179807       -0.00739953776908
25
 energy: 32.711430606569 xtb: 6.6.1 (8d0f1dd)
C            3.20868779561903        1.16589471111915        0.08525445625752
N            2.23867980169389        0.10012844222975        0.03198755672870
C            2.49064921701845       -1.24359093341476        0.03776786525955
N            1.44445189003810       -2.10953963346178        0.00818646411681
C            0.38375500499941       -1.12669084091445       -0.01008836622683
C            0.85338698631645        0.20106923248116        0.01015600789009
C            0.07431584026938        1.39913840196362       -0.00530033691310
O            0.44820958354703        2.56286107715702       -0.00162558362367
N           -1.33195644227495        1.13750642586330       -0.03225889027494
C           -2.27404094351073        2.23967433322268       -0.05050481331788
C           -1.85780128061218       -0.12166941595651       -0.05001415963785
O           -3.05500659349681       -0.31968711949318       -0.07598529502952
N           -0.98466475902207       -1.21871196457244       -0.03815537098649
C           -1.53609789932243       -2.55710814095169       -0.05959290640924
H            3.70390064993260        1.20491537796942        1.05911488448746
H            3.96754462659673        1.03359390819664       -0.68752100080586
H            2.70983811525921        2.12727686036249       -0.07538302355308
H            3.49204254711759       -1.61556471924683        0.04844730027399
H           -1.71298804991183        3.17129830884152       -0.02594400431022
H           -2.88652382716160        2.19246628877438       -0.95242112696701
H           -2.93833489686143        2.17594700857919        0.81280331761184
H           -1.19459928087684       -3.09553504806496        0.82503473256959
H           -1.17212626672054       -3.07776380261999       -0.94605248459314
H           -2.62069341051757       -2.49398568295993       -0.07335389460060
H            2.46158589685355       -3.74289428635977       -0.00751741575153
25
 energy: 23.120952186258 xtb: 6.6.1 (8d0f1dd)
C            3.21042388688999        1.16185219844219        0.08477453418325
N            2.23290170515563        0.09214925918789        0.03709111346732
C            2.43455238602968       -1.23649969948307        0.03187546887033
N            1.37724484554803       -2.02560379827621        0.00423952875502
C            0.35623101539501       -1.05951798965680       -0.00761842038190
C            0.86045010952540        0.23837939759265        0.01141958833260
C            0.06411726651112        1.43407988501160       -0.00615216802183
O            0.44315893175816        2.58229774420433       -0.00125795239872
N           -1.31216359891644        1.13802647893078       -0.03229405461742
C           -2.26721239259611        2.23444044213941       -0.05039033250915
C           -1.85783565680513       -0.13232020651120       -0.04975134908197
O           -3.05629378922106       -0.30581944500421       -0.07543591914686
N           -0.98927451524793       -1.21291247547693       -0.03686429619484
C           -1.52942071504816       -2.55968504591476       -0.05948249589286
H            3.70237094000062        1.20068283941004        1.05872107151289
H            3.96934029805602        1.02601367400271       -0.68560316623293
H            2.71214829396094        2.12235565744593       -0.07849480178860
H            3.44222069820119       -1.63147786332610        0.04862872795704
H           -1.71387539512453        3.17057672645441       -0.02589504988908
H           -2.88090745251230        2.18639997731752       -0.95127191119798
H           -2.93264626187874        2.16961186587705        0.81176341891068
H           -1.18841165568222       -3.09591350948697        0.82469369465439
H           -1.16548406674009       -3.07736261215499       -0.94578783859989
H           -2.61438454641781       -2.49529163031471       -0.07344078181600
H            2.61496397413121       -3.93543308166654       -0.00643269667893
25
 energy: 20.492006831713 xtb: 6.6.1 (8d0f1dd)
C            3.21372814609871        1.16781652768594        0.08385168708464
N            2.23730767436082        0.09425240198637        0.03972331448058
C            2.40958471395257       -1.23168813740461        0.03021303736897
N            1.30898585543431       -1.95145141109340        0.00214945923554
C            0.33584980838315       -1.00075962110815       -0.00732263847064
C            0.87123474299252        0.27434739603565        0.01300809555922
C            0.05153541349198        1.46369854817972       -0.00502580177530
O            0.43947986023911        2.60834986448469       -0.00078151528747
N           -1.30061579574056        1.13982335576434       -0.03188028860170
C           -2.26639095538810        2.23291145561542       -0.05032126276969
C           -1.86272960076511       -0.13817370089112       -0.04971415118293
O           -3.06307056300125       -0.28558611379930       -0.07513727339254
N           -0.99859547869021       -1.20790581208401       -0.03765569002254
C           -1.52388309862201       -2.55981650569392       -0.05979811916921
H            3.70266707741485        1.20217709334889        1.05904200264201
H            3.97254971160048        1.02482813599647       -0.68470556966597
H            2.71271849416657        2.12432257798447       -0.08149127216623
H            3.41595179917936       -1.64142863422991        0.04788357898734
H           -1.71710635107789        3.17189968684330       -0.02565224104365
H           -2.87857230864363        2.18099000513576       -0.95160551320104
H           -2.93033637533053        2.16382232489531        0.81219894814172
H           -1.18173635401697       -3.09434972486482        0.82443723814628
H           -1.15881948462637       -3.07552249832110       -0.94613813495281
H           -2.60915961659993       -2.49620867480091       -0.07361962782948
H            2.73163699016059       -4.17731975092105       -0.00462434992056
25
 energy: 20.747275096166 xtb: 6.6.1 (8d0f1dd)
C            3.21602072528060        1.17561891150450        0.08411165361991
N            2.23908478928159        0.10575243278831        0.04014144321264
C            2.40720488381873       -1.22797425046585        0.03023138259897
N            1.27076465608553       -1.91397537171373        0.00101904172760
C            0.32782566963815       -0.96479871397099       -0.00743615897704
C            0.87664991162955        0.30414362631842        0.01425007303734
C            0.04271059623740        1.48481112247481       -0.00476505511296
O            0.43416263151881        2.63374832290433       -0.00132862320446
N           -1.30024859840090        1.14633707674619       -0.03178376591044
C           -2.27077017545039        2.23595701389004       -0.05038798306913
C           -1.86923615261225       -0.13473881395828       -0.04944312301055
O           -3.07036263172791       -0.27024716545270       -0.07454378761206
N           -1.00631878313240       -1.19965071255706       -0.03819279173060
C           -1.51684094162929       -2.55522359691061       -0.05968035889129
H            3.70434929825256        1.20646102517033        1.06005584787923
H            3.97542442449526        1.02660392107783       -0.68328373118190
H            2.71492943278041        2.13013019441169       -0.08268259837826
H            3.40382214586635       -1.64515254991262        0.04612441104614
H           -1.72120509452018        3.17452614414649       -0.02583588100036
H           -2.87996540306127        2.17815309824310       -0.95248922512874
H           -2.93170849505663        2.16111009136035        0.81311143716937
H           -1.17411217396943       -3.09096203859968        0.82431205797748
H           -1.15105625623660       -3.07212791663956       -0.94570884632150
H           -2.60272253771661       -2.49757469845945       -0.07362321912652
H            2.79381238360144       -4.40189836365184       -0.00513828741828
25
 energy: 20.764237429343 xtb: 6.6.1 (8d0f1dd)
C            3.21637163851434        1.18185172003284        0.08430776014397
N            2.23620445587497        0.11960814036763        0.03948089043775
C            2.41605300708742       -1.21859232333554        0.03061885712370
N            1.27000359318607       -1.89959034318971        0.00126338945422
C            0.32898656310864       -0.95208340227931       -0.00743516044133
C            0.87679171972291        0.31962464977298        0.01523577832235
C            0.03986039037310        1.49294164541179       -0.00450271194558
O            0.42995693453867        2.64622149314498       -0.00177340738198
N           -1.30309477268070        1.14972446042898       -0.03173494206634
C           -2.27314126621402        2.23834339560988       -0.05039122637665
C           -1.87215197277667       -0.13072369676351       -0.04936698564264
O           -3.07330013905705       -0.26662259017747       -0.07434395396320
N           -1.00767697355380       -1.19568883118818       -0.03829026275542
C           -1.51262361047938       -2.55125762752594       -0.05964044863577
H            3.70560345906044        1.21010489166702        1.06038979230380
H            3.97643460162826        1.02869801257842       -0.68250673690211
H            2.71774750605059        2.13685074818583       -0.08317790535505
H            3.40381822476490       -1.63841761360468        0.04568062095964
H           -1.72203248782539        3.17565977315819       -0.02575330725992
H           -2.88090969549637        2.17883008340540       -0.95277654983765
H           -2.93277516854485        2.16168293161899        0.81335617559956
H           -1.17122634444184       -3.08884221012966        0.82443063200988
H           -1.14796037899391       -3.06996408933824       -0.94579333280283
H           -2.59921314102718       -2.49657853136345       -0.07374264484487
H            2.79048816215335       -4.54275189774323       -0.00650040794894
25
 energy: 20.384623033209 xtb: 6.6.1 (8d0f1dd)
C            3.21807174136266        1.18958777364383        0.08480537285801
N            2.23260460607433        0.13811533648865        0.03873966802793
C            2.43178292570059       -1.20079538146188        0.03113791318248
N            1.29137659204203       -1.88869158231727        0.00207484405117
C            0.33494553510213       -0.95062659968427       -0.00732669417599
C            0.87490914603757        0.32785611603423        0.01586545868162
C            0.04054507389187        1.49493287061990       -0.00470436157905
O            0.42660469201837        2.65214882525680       -0.00227197787313
N           -1.30632819251196        1.15082519119342       -0.03184711789016
C           -2.27451157911215        2.23913874540419       -0.05043048293121
C           -1.87134692019940       -0.12685855079177       -0.04929260343492
O           -3.07237283396907       -0.26945490553667       -0.07420427705964
N           -1.00420140555648       -1.19523755208786       -0.03805780673720
C           -1.50961706074605       -2.54880254271658       -0.05949927119710
H            3.70809120276120        1.21411925439410        1.06104116511570
H            3.97795304316883        1.03148649593015       -0.68200751175601
H            2.72340745763272        2.14615548893858       -0.08302340999953
H            3.41103976481148       -1.62674289568920        0.04558704731024
H           -1.72262441322669        3.17586413859761       -0.02585367240716
H           -2.88198021951767        2.17961102073698       -0.95282688475214
H           -2.93377998178938        2.16247166192060        0.81339298840996
H           -1.17020241329869       -3.08846843278208        0.82464780330731
H           -1.14691014248755       -3.06956386607748       -0.94585010765404
H           -2.59702368101271       -2.49526762011214       -0.07365653719533
H            2.73178136779647       -4.65277420115784       -0.00940563210720
25
 energy: 19.983509239491 xtb: 6.6.1 (8d0f1dd)
C            3.22054293271538        1.19766198406288        0.08498405453034
N            2.23214295339112        0.15381672736122        0.03821869945984
C            2.44718572055307       -1.18151934452219        0.03189817313808
N            1.32407755178950       -1.88238996423625        0.00340644522945
C            0.34316493047765       -0.95943209088017       -0.00712853730132
C            0.87272468700889        0.32615252181369        0.01585756399911
C            0.04385101929809        1.49176013634511       -0.00463911127229
O            0.42503536162309        2.65067856935253       -0.00215852748396
N           -1.30841696361526        1.14999469235325       -0.03182650282162
C           -2.27477556468189        2.23842204547079       -0.05042848956875
C           -1.86674457900758       -0.12460903884183       -0.04928123078583
O           -3.06766015579195       -0.27673312467368       -0.07437569619193
N           -0.99699210425638       -1.19749442371770       -0.03770446235677
C           -1.50813562192084       -2.54866970371152       -0.05951198811652
H            3.71003904523745        1.21873680860119        1.06149159221067
H            3.97889932255093        1.03558304860514       -0.68248476948981
H            2.72803801896088        2.15508271598599       -0.08287164643643
H            3.42184744199718       -1.61723360663093        0.04613867985661
H           -1.72259910857763        3.17517134027096       -0.02576805335983
H           -2.88268344026467        2.18024025422768       -0.95289913269376
H           -2.93462231612737        2.16302320966162        0.81334791079994
H           -1.17029476402971       -3.08944652440598        0.82474374108277
H           -1.14696124643151       -3.07042401218190       -0.94610674038750
H           -2.59581587488535       -2.49383126103039       -0.07370252103193
H            2.64036705895939       -4.70551217053546       -0.01216553881401
25
 energy: 19.844851083784 xtb: 6.6.1 (8d0f1dd)
C            3.22211945200853        1.20129709655761        0.08520723407535
N            2.23493506715973        0.15720548350928        0.03821761927004
C            2.45159078964758       -1.17413163553482        0.03211712586161
N            1.34040642161383       -1.88234289230003        0.00380935719217
C            0.34719895472876       -0.96738906237990       -0.00716396121311
C            0.87213782887939        0.32025757962014        0.01515780059280
C            0.04610473878119        1.48858030540402       -0.00486504509556
O            0.42543290121675        2.64660409408048       -0.00216414042490
N           -1.30848184787444        1.14899746942168       -0.03188413165428
C           -2.27453083659251        2.23743938641992       -0.05045354028044
C           -1.86328284954410       -0.12491334671390       -0.04923301837348
O           -3.06415947010612       -0.28121598910530       -0.07434520951636
N           -0.99262362821257       -1.19907120791127       -0.03754588330979
C           -1.50841905007001       -2.54991164519650       -0.05943559340781
H            3.71071401716701        1.22070241283142        1.06185829983283
H            3.97928927696706        1.03798094549717       -0.68262411360136
H            2.72921146747499        2.15843747280850       -0.08241824659263
H            3.42707695688985       -1.61460922333147        0.04633608193484
H           -1.72251140816489        3.17451235856703       -0.02588549958938
H           -2.88292654943091        2.17992524822015       -0.95290302030470
H           -2.93472547565613        2.16282120265697        0.81340031066574
H           -1.17072229354769       -3.09036271740758        0.82484222468077
H           -1.14754257801958       -3.07137396940128       -0.94607831099338
H           -2.59578098167568       -2.49346723569661       -0.07352722083946
H            2.59170340133241       -4.69694334187169       -0.01338520671494
25
 energy: 19.811072653948 xtb: 6.6.1 (8d0f1dd)
C            3.22234410147524        1.20190790499767        0.08500862657329
N            2.23683548078137        0.15588912861860        0.03834372474794
C            2.45094404690075       -1.17369458251570        0.03233861460989
N            1.34290184584023       -1.88364713240996        0.00402553862754
C            0.34784417157237       -0.96986454526152       -0.00713186097318
C            0.87209347258748        0.31744635250804        0.01491408963414
C            0.04657981894423        1.48763853163972       -0.00464512135015
O            0.42603971652503        2.64478374452219       -0.00181069221059
N           -1.30810249279832        1.14875380390004       -0.03178884236736
C           -2.27428001760582        2.23721132415441       -0.05041408514547
C           -1.86246505606543       -0.12564866071233       -0.04925443113688
O           -3.06335781355912       -0.28189680263613       -0.07447567227737
N           -0.99182932935846       -1.19916834786873       -0.03756976040533
C           -1.50886106880102       -2.55061327211787       -0.05954650325378
H            3.71060692796026        1.22110145413410        1.06165066537541
H            3.97914497840122        1.03845397609432       -0.68294090709508
H            2.72832980557944        2.15827384581780       -0.08265503120415
H            3.42799044160768       -1.61420472038440        0.04658493527220
H           -1.72230823240638        3.17437086229246       -0.02575486153454
H           -2.88265904824853        2.17984422318065       -0.95292712798161
H           -2.93461742090303        2.16268523665067        0.81338388010292
H           -1.17089010895571       -3.09056671603614        0.82473544146832
H           -1.14762157557879       -3.07151224659614       -0.94618335850368
H           -2.59596265595675       -2.49363136496343       -0.07367675443049
H            2.58351431703452       -4.68488320826431       -0.01317659434745
25
 energy: 19.805025369031 xtb: 6.6.1 (8d0f1dd)
C            3.22243684188524        1.20191998116187        0.08516263951911
N            2.23750104181150        0.15517020799178        0.03837414613503
C            2.45031491541377       -1.17398601334142        0.03222918819948
N            1.34258761288917       -1.88409240879363        0.00384949600749
C            0.34781741241634       -0.97001419245189       -0.00722255199073
C            0.87202612763018        0.31700974938097        0.01469259810687
C            0.04649126224344        1.48769480255117       -0.00483366492482
O            0.42619875868411        2.64458283725379       -0.00197983045148
N           -1.30796471110186        1.14882315731567       -0.03186112497147
C           -2.27432456364980        2.23717937045494       -0.05044155961350
C           -1.86246524045177       -0.12601660077345       -0.04922764000135
O           -3.06337582671294       -0.28168568282577       -0.07435536095642
N           -0.99192348891144       -1.19888757877105       -0.03759087371298
C           -1.50898177667417       -2.55077119477705       -0.05945783568141
H            3.71063398313029        1.22093388828834        1.06181788204221
H            3.97930601423712        1.03851909207668       -0.68271621520949
H            2.72817820683283        2.15807807604567       -0.08242378368717
H            3.42794251495826       -1.61406573437030        0.04644627013360
H           -1.72243603541573        3.17438549399601       -0.02586915774505
H           -2.88276530160394        2.17969715579981       -0.95289640353882
H           -2.93457231203211        2.16261375307539        0.81341209097157
H           -1.17078852491507       -3.09045671420070        0.82483323629280
H           -1.14763380018728       -3.07148173346010       -0.94608092066673
H           -2.59600033224677       -2.49371671898626       -0.07352206903676
H            2.58401152674309       -4.68240420389646       -0.01330464302542
