25
 energy: 0.000000000000 xtb: 6.6.1 (8d0f1dd)
C            3.23720163006194        1.16630919979326        0.08434469647475
N            2.29877817382611        0.07527477071623        0.03981603040599
C            2.58028210190900       -1.21425402444508        0.03006176031096
N            1.43813958087363       -1.93419271955128        0.00098261760884
C            0.39035688448383       -1.05887472636071       -0.00790371836672
C            0.93510056364412        0.21347819449412        0.01709077491437
C            0.09450143893243        1.40504303904423       -0.00410947031874
O            0.49712751527797        2.54126714362870       -0.00342325688240
N           -1.25076640035757        1.06271879480407       -0.03085478223738
C           -2.21907211982101        2.15522099834493       -0.05001256985998
C           -1.81739487048744       -0.20012725993278       -0.04692818574614
O           -2.99983886758376       -0.37846417018721       -0.07008878229737
N           -0.92618586207120       -1.30210215599479       -0.03682761578324
C           -1.46982264913417       -2.64643102187190       -0.06029820460571
H            3.71247264356769        1.21471455160235        1.06488849150277
H            4.00791497605742        1.03430808813993       -0.67357694370751
H            2.69910007168542        2.09770118228144       -0.09130154882931
H            3.56654120610678       -1.63682992603973        0.04233140067262
H           -1.67107961066214        3.09322851271934       -0.02552706933167
H           -2.82428953597071        2.09428624779827       -0.95318082946668
H           -2.87644029173232        2.07745725625962        0.81450067533302
H           -1.17061996399332       -3.19584890659852        0.83242232437030
H           -1.14560257411436       -3.17511610292205       -0.95688275822323
H           -2.55549792440841       -2.55659984320617       -0.07459039797972
H            1.38130855184625       -2.94313852034425       -0.01389874181052
25
 energy: -2.361475352653 xtb: 6.6.1 (8d0f1dd)
C            3.23281299075098        1.17809628955990        0.08599220491919
N            2.29647512732887        0.09266604859175        0.03765253815744
C            2.59823700629096       -1.23388331439937        0.03077936220764
N            1.45469423558344       -1.98426324658130        0.00116371311528
C            0.40285343208812       -1.08512144699118       -0.00867036557605
C            0.92056682042404        0.20972161403804        0.01484553753276
C            0.09489336323070        1.39565523713031       -0.00509795279965
O            0.49314519295924        2.56194970049122       -0.00354194240443
N           -1.26805089212900        1.06128118172768       -0.03128281460371
C           -2.22903540251755        2.16262473620400       -0.04986279707084
C           -1.82542271870799       -0.19217412243363       -0.04785256365404
O           -3.02305246888663       -0.37019572750963       -0.07128420226895
N           -0.93580382316931       -1.30094415797801       -0.03747828064985
C           -1.48438772486675       -2.63313888654918       -0.06030147328129
H            3.71548808192908        1.22169761373534        1.06624474403380
H            4.00084700173926        1.04104589601078       -0.67698509674865
H            2.69715257797449        2.10989338167654       -0.08763880590294
H            3.57775887465539       -1.64480734061919        0.04435618713659
H           -1.67301812059359        3.09794048835802       -0.02537342695662
H           -2.83784560609015        2.11381778942880       -0.95277628578416
H           -2.88997926222591        2.09700505326735        0.81435079420321
H           -1.17585077896376       -3.17852906032912        0.83256978897225
H           -1.15115742164565       -3.15838668395058       -0.95645592417882
H           -2.56936872447495       -2.53702472590052       -0.07439431847235
H            1.49026290725286       -3.03589771480602       -0.01192472377855
25
 energy: 4.860603879873 xtb: 6.6.1 (8d0f1dd)
C            3.22598308468449        1.18442401997615        0.08706857459221
N            2.28890330478351        0.10491028756696        0.03378303120545
C            2.60914811249600       -1.24636063572792        0.03251987351286
N            1.47144634674083       -2.03448979378089        0.00194543393341
C            0.41352277945256       -1.11957192196841       -0.00968339475452
C            0.90103983039091        0.19563739843473        0.01170029176454
C            0.09472470681124        1.37370041553285       -0.00622545864987
O            0.48389553120726        2.55585868323614       -0.00347975364114
N           -1.29083403676753        1.06485954476049       -0.03186088934505
C           -2.24019853393357        2.17726100528263       -0.04971794513550
C           -1.83067266262601       -0.17903678993643       -0.04888734544131
O           -3.03452142788805       -0.36160482894428       -0.07296642533146
N           -0.94730724009603       -1.29376081604541       -0.03821730194062
C           -1.50476682623575       -2.61486829327399       -0.06032358877755
H            3.71763594398695        1.22654093125800        1.06534547753083
H            3.99162814630945        1.04999309810340       -0.68129892992861
H            2.69446553601644        2.11968388146461       -0.08109821672211
H            3.58713054673014       -1.64180862226965        0.04761579055007
H           -1.67406541196437        3.10809327297693       -0.02510841814402
H           -2.85303383892435        2.14007677897994       -0.95183635694143
H           -2.90494355599444        2.12319914963740        0.81375357713680
H           -1.18919318192775       -3.15917009229384        0.83150882891941
H           -1.16502742903939       -3.13995119073247       -0.95488955991419
H           -2.58893226893081       -2.51489199012571       -0.07417646734085
H            1.65618721265445       -3.12969488993922       -0.00843693099008
25
 energy: 9.366041104238 xtb: 6.6.1 (8d0f1dd)
C            3.22199945387695        1.18466669155504        0.08697471778602
N            2.28697645462281        0.10357583438936        0.03172234507128
C            2.61055498508138       -1.24918794144080        0.03375835009317
N            1.47947246705609       -2.05089459864628        0.00268135466485
C            0.41793033849624       -1.13508329809477       -0.01004863360236
C            0.89630262926867        0.18488229097944        0.01052130329377
C            0.09501173805111        1.36376178630943       -0.00648708907600
O            0.48136348417006        2.54457232950110       -0.00340769577814
N           -1.29972936542414        1.07038131062755       -0.03224637870480
C           -2.24486828280636        2.18563825913519       -0.04982885314513
C           -1.83190501862974       -0.17428590356329       -0.04954887712015
O           -3.03444720786976       -0.36357260725676       -0.07424544850284
N           -0.94897922163113       -1.28915215749366       -0.03845935307804
C           -1.51515997468279       -2.60730812866758       -0.06018429203838
H            3.71637398079191        1.22672756062130        1.06383536704797
H            3.98559581031716        1.05676937761410       -0.68440793689009
H            2.69036317945686        2.12190874669141       -0.07616862019563
H            3.59290880109213       -1.63746854953370        0.04937616631638
H           -1.67578962612177        3.11439605142921       -0.02509689382887
H           -2.85917351067702        2.15201945842971       -0.95130509944973
H           -2.91086014859138        2.13503344974333        0.81312821452700
H           -1.20050918028803       -3.15205633812631        0.83150181072072
H           -1.17666501392022       -3.13351798250016       -0.95437376685294
H           -2.59910169887533       -2.50423454188785       -0.07389632405340
H            1.73454959517251       -3.15854249764296       -0.00676047105739
25
 energy: 10.146157343849 xtb: 6.6.1 (8d0f1dd)
C            3.22093515011858        1.18344102630586        0.08680703514437
N            2.28766655129573        0.10004957751712        0.03091261368931
C            2.60830259941274       -1.24909632188067        0.03455078547144
N            1.48005819559522       -2.05216175017852        0.00312378422123
C            0.41832520970608       -1.13811287792704       -0.01014858844423
C            0.89715744327688        0.18099680764858        0.01020049385317
C            0.09567429954997        1.36219021210747       -0.00652973256435
O            0.48174619723096        2.53973200483603       -0.00321058163452
N           -1.30094494557475        1.07339123389938       -0.03241929017278
C           -2.24561554482261        2.18775116402708       -0.04995063135776
C           -1.83234641506864       -0.17328461696642       -0.04984036951273
O           -3.03307345579515       -0.36585122843382       -0.07483682258837
N           -0.94819019605505       -1.28678413812855       -0.03846256778114
C           -1.51744819599229       -2.60575364530390       -0.06003322009686
H            3.71546169866519        1.22538067655210        1.06313503591670
H            3.98336056831788        1.05945554069224       -0.68585983139379
H            2.68764563661329        2.12071057385971       -0.07402951112907
H            3.59306612174488       -1.63536600922066        0.04974618423049
H           -1.67697605977976        3.11637604971344       -0.02520016187309
H           -2.85996866985608        2.15385536556313       -0.95133750363875
H           -2.91154304889834        2.13683423514383        0.81301555460867
H           -1.20398811438971       -3.15059092947220        0.83174105782027
H           -1.18031177315811       -3.13230225904350       -0.95426589042240
H           -2.60131177628662       -2.50209268245719       -0.07369844324588
H            1.75453319208592       -3.15973940668152       -0.00637550295262
25
 energy: 9.998831494511 xtb: 6.6.1 (8d0f1dd)
C            3.22068251551243        1.18253144802411        0.08671864436144
N            2.28859429489836        0.09756867233272        0.03037252497101
C            2.60596622136396       -1.24883997316680        0.03542383607918
N            1.47852940381296       -2.05105853714440        0.00349541774977
C            0.41758175453731       -1.13818709538483       -0.01028919536894
C            0.89828332228886        0.17983292973936        0.00992098739664
C            0.09629589865746        1.36229593304171       -0.00664418219313
O            0.48238640544969        2.53829240770228       -0.00299871030728
N           -1.30042249776981        1.07426112451292       -0.03251526819668
C           -2.24518241435267        2.18774171801908       -0.04998886087067
C           -1.83285937870770       -0.17313873271975       -0.04997111069293
O           -3.03259638489133       -0.36652701964468       -0.07507883000484
N           -0.94782871803498       -1.28563199869664       -0.03845462747336
C           -1.51741806140462       -2.60574869310315       -0.05996921164360
H            3.71514928664584        1.22418732207297        1.06281628733764
H            3.98260989801805        1.06036044243275       -0.68643527926216
H            2.68601635104442        2.11929115463848       -0.07318116209384
H            3.59165581169584       -1.63457420327997        0.04958057406641
H           -1.67740724632836        3.11678009853224       -0.02524956226936
H           -2.85956732292329        2.15345128544019       -0.95137605480704
H           -2.91104095579221        2.13640670424871        0.81305900114560
H           -1.20394000931424       -3.15015628801126        0.83186476824485
H           -1.18038452565236       -3.13191271235401       -0.95427532219040
H           -2.60123697105003       -2.50248681791339       -0.07360055532155
H            1.75834799023262       -3.15571056714661       -0.00619021250949
25
 energy: 9.793543163295 xtb: 6.6.1 (8d0f1dd)
C            3.22066098769763        1.18233074541157        0.08670818081138
N            2.28903133996310        0.09688056758273        0.03003688744509
C            2.60506201856129       -1.24898461374723        0.03621942990542
N            1.47741049159344       -2.05074461510341        0.00374005879475
C            0.41709200373829       -1.13789520649449       -0.01043216430721
C            0.89859111806965        0.17994323661151        0.00969668145705
C            0.09657477843066        1.36244180702625       -0.00674251002742
O            0.48257534968026        2.53849664679309       -0.00292291293862
N           -1.30000940907799        1.07403316544147       -0.03255031099595
C           -2.24477306697774        2.18737870520381       -0.04998107168616
C           -1.83316117222140       -0.17315696385364       -0.04998667028902
O           -3.03276495525380       -0.36631625637461       -0.07508898455689
N           -0.94795492566328       -1.28539564351536       -0.03845328858557
C           -1.51705547977014       -2.60597758116311       -0.05997448080571
H            3.71514491621976        1.22379666832910        1.06277018073788
H            3.98261107680009        1.06050339082305       -0.68646985229618
H            2.68547487067069        2.11874009614538       -0.07303570616008
H            3.59083511748894       -1.63472386161159        0.04912467415419
H           -1.67732000596171        3.11666491822520       -0.02524562398340
H           -2.85924696303917        2.15308506379756       -0.95136252804667
H           -2.91066895451934        2.13602512559612        0.81309613846458
H           -1.20318968838362       -3.15008950334751        0.83184776138046
H           -1.17968681450838       -3.13181498764677       -0.95429576660422
H           -2.60086224140041       -2.50309925157529       -0.07358368309373
H            1.75784427579939       -3.15309305038178       -0.00608054262663
25
 energy: 9.602604238347 xtb: 6.6.1 (8d0f1dd)
C            3.22063909705403        1.18227593922055        0.08673920045080
N            2.28935578888291        0.09655965696993        0.02964858612133
C            2.60452116206575       -1.24934202650586        0.03748070193650
N            1.47647412193285       -2.05091400928888        0.00405581844809
C            0.41677652061759       -1.13767909702017       -0.01064075475845
C            0.89866769075181        0.18026253207584        0.00942461617473
C            0.09678137986851        1.36247279056913       -0.00685659863098
O            0.48258217788280        2.53889790804109       -0.00291838239531
N           -1.29975703465721        1.07364710735757       -0.03258750284475
C           -2.24445314704889        2.18708291040936       -0.04997401361447
C           -1.83338423936474       -0.17317634715042       -0.04997692611482
O           -3.03303024144655       -0.36603359348083       -0.07503219153987
N           -0.94815592679933       -1.28534699403111       -0.03845128216041
C           -1.51675884880716       -2.60617099784000       -0.05999274942273
H            3.71514194583887        1.22361227917857        1.06281053283067
H            3.98276083426477        1.06062287926904       -0.68636466622169
H            2.68510960759600        2.11838911570736       -0.07296556375600
H            3.59027406030039       -1.63514565469413        0.04814603445894
H           -1.67710165490027        3.11649487084479       -0.02523655339853
H           -2.85901158294041        2.15288033276659       -0.95134336646009
H           -2.91039551502659        2.13580486928631        0.81311551479301
H           -1.20253593644655       -3.15008738606615        0.83179811905016
H           -1.17907073505971       -3.13177501980279       -0.95431118638537
H           -2.60056386854872       -2.50358794995744       -0.07358058923911
H            1.75734901192607       -3.15071551368634       -0.00595290117440
25
 energy: 9.524712253342 xtb: 6.6.1 (8d0f1dd)
C            3.22061228206225        1.18230539521684        0.08682444510556
N            2.28940115638923        0.09662848433736        0.02940174017193
C            2.60454896726816       -1.24966160741011        0.03907061576504
N            1.47626602933364       -2.05142216268114        0.00436576816477
C            0.41682883943987       -1.13768544893153       -0.01086671360032
C            0.89855301131498        0.18046001899360        0.00922539700836
C            0.09682428986300        1.36237592762395       -0.00695725318042
O            0.48242968609953        2.53905644232756       -0.00301558238139
N           -1.29981786849812        1.07346172566767       -0.03262965436138
C           -2.24443686461050        2.18708279042470       -0.04998415225423
C           -1.83337482949232       -0.17319452579775       -0.04995913351573
O           -3.03311995393143       -0.36600010225513       -0.07493697641062
N           -0.94822644409790       -1.28547590261013       -0.03846283771886
C           -1.51675702337060       -2.60619690910731       -0.06001076971435
H            3.71507797630903        1.22366844264516        1.06294330474142
H            3.98292646962312        1.06069917663242       -0.68617182776841
H            2.68506963580725        2.11836476969049       -0.07295236425478
H            3.59028886049681       -1.63548354480573        0.04661475385292
H           -1.67692158850626        3.11640399500679       -0.02524068063341
H           -2.85899737459606        2.15295528597424       -0.95134738775373
H           -2.91037428336293        2.13586710202838        0.81310414656183
H           -1.20252056528982       -3.15014913714583        0.83176783470385
H           -1.17905843114064       -3.13183650547203       -0.95431872773471
H           -2.60057167885516       -2.50358465831892       -0.07358900205508
H            1.75756436968106       -3.14961044986154       -0.00584104659098
