25
 energy: -42.541380861142 xtb: 6.6.1 (8d0f1dd)
C            3.21719848815825        1.17647298483334        0.08475625949270
N            2.26678393912001        0.09134077757895        0.03385647220191
C            2.52934930712104       -1.22711399819272        0.03601901318801
N            1.44022640658387       -1.97839765041083        0.00760782105918
C            0.39673975046894       -1.09893698594984       -0.00956608835855
C            0.89214762220285        0.20181507059934        0.01019545698349
C            0.07657804194928        1.38711126647806       -0.00562949922828
O            0.47068794411226        2.54080334212123       -0.00150020611361
N           -1.28520367177426        1.07857789407993       -0.03158213622890
C           -2.24043177844578        2.17954977875493       -0.04977651686561
C           -1.83103543908291       -0.18942593851132       -0.04936795387899
O           -3.03105792580363       -0.35306812425182       -0.07352515450289
N           -0.95507411671164       -1.27788995875372       -0.03866881367257
C           -1.50277873842985       -2.61609223788775       -0.06066965735928
H            3.70643929377863        1.21321906952410        1.06065487949883
H            3.98216669744437        1.04304368785253       -0.68194124623509
H            2.69641158976241        2.11979975279502       -0.08001748214441
H            3.52622348410908       -1.61935862048436        0.04910877642820
H           -1.68273198151212        3.11431335280990       -0.02506568818462
H           -2.84761788627711        2.12818695692545       -0.95284429224127
H           -2.89996544733705        2.11128185444856        0.81442507591570
H           -1.18196035974782       -3.15852000419421        0.82825633952070
H           -1.15812138638011       -3.13913320148915       -0.95230701557005
H           -2.58515303956053       -2.52826019826981       -0.07461928728258
H            2.06015064860015       -3.51138649184667       -0.00776053469058
