25
 energy: 0.000000000000 xtb: 6.6.1 (8d0f1dd)
C            3.23720163006194        1.16630919979326        0.08434469647475
N            2.29877817382611        0.07527477071623        0.03981603040599
C            2.58028210190900       -1.21425402444508        0.03006176031096
N            1.43813958087363       -1.93419271955128        0.00098261760884
C            0.39035688448383       -1.05887472636071       -0.00790371836672
C            0.93510056364412        0.21347819449412        0.01709077491437
C            0.09450143893243        1.40504303904423       -0.00410947031874
O            0.49712751527797        2.54126714362870       -0.00342325688240
N           -1.25076640035757        1.06271879480407       -0.03085478223738
C           -2.21907211982101        2.15522099834493       -0.05001256985998
C           -1.81739487048744       -0.20012725993278       -0.04692818574614
O           -2.99983886758376       -0.37846417018721       -0.07008878229737
N           -0.92618586207120       -1.30210215599479       -0.03682761578324
C           -1.46982264913417       -2.64643102187190       -0.06029820460571
H            3.71247264356769        1.21471455160235        1.06488849150277
H            4.00791497605742        1.03430808813993       -0.67357694370751
H            2.69910007168542        2.09770118228144       -0.09130154882931
H            3.56654120610678       -1.63682992603973        0.04233140067262
H           -1.67107961066214        3.09322851271934       -0.02552706933167
H           -2.82428953597071        2.09428624779827       -0.95318082946668
H           -2.87644029173232        2.07745725625962        0.81450067533302
H           -1.17061996399332       -3.19584890659852        0.83242232437030
H           -1.14560257411436       -3.17511610292205       -0.95688275822323
H           -2.55549792440841       -2.55659984320617       -0.07459039797972
H            1.38130855184625       -2.94313852034425       -0.01389874181052
25
 energy: -1.190236255685 xtb: 6.6.1 (8d0f1dd)
C            3.23124976041177        1.17791937781853        0.08582582213259
N            2.29396378260278        0.09256086342772        0.03766154588015
C            2.59657147589915       -1.23379321104408        0.03087323141159
N            1.45833090243913       -1.99202780371950        0.00119639292714
C            0.40334757699041       -1.08929282702948       -0.00867819594632
C            0.91857494330065        0.20843924803593        0.01485436159035
C            0.09356939531190        1.39655816768036       -0.00500866405271
O            0.49191396672854        2.56292706975376       -0.00335550726514
N           -1.26930658597712        1.06363045915593       -0.03127388991793
C           -2.23050217596932        2.16542459998562       -0.04988302625916
C           -1.82579486845271       -0.19019226615709       -0.04787730571436
O           -3.02352264985404       -0.36746780818690       -0.07137615640454
N           -0.93640074405941       -1.30038558289921       -0.03749474041621
C           -1.48581208232312       -2.63145420014254       -0.06030445964276
H            3.71452603306156        1.22099065870680        1.06584090231202
H            3.99947642138851        1.04011783671028       -0.67692031973010
H            2.69805275498103        2.11119043644250       -0.08766689814072
H            3.57590602389786       -1.64238903639302        0.04448647538552
H           -1.67563056473230        3.10154520834957       -0.02540398891336
H           -2.83958595729803        2.11656422928369       -0.95265821444954
H           -2.89173512103773        2.09974329689552        0.81415322286587
H           -1.17613657454720       -3.17598391104275        0.83254358853278
H           -1.15148533006907       -3.15585701464128       -0.95638769941689
H           -2.57075499783434       -2.53565946709897       -0.07437662609604
H            1.51339928307731       -3.05407972171938       -0.01173595452493
25
 energy: 10.232226355973 xtb: 6.6.1 (8d0f1dd)
C            3.22322911411247        1.18358628410902        0.08673876962823
N            2.28331650861973        0.10533108462929        0.03385032455928
C            2.60438565488886       -1.24626902399441        0.03276040442069
N            1.47749676948118       -2.05254681919602        0.00194227946803
C            0.41392262117247       -1.12819035273191       -0.00965515197889
C            0.89591487003579        0.19285770352385        0.01175891015606
C            0.09179929700889        1.37557258123752       -0.00594450683244
O            0.48158007645369        2.55803297761044       -0.00294002921349
N           -1.29440227569169        1.07107014629446       -0.03180171844867
C           -2.24420921874517        2.18382195268479       -0.04979153997530
C           -1.83219981137696       -0.17313838232720       -0.04888179655087
O           -3.03637166001389       -0.35480729774222       -0.07314061438318
N           -0.94969053091801       -1.29055809627213       -0.03819590564750
C           -1.50762201701580       -2.61024633174325       -0.06031537204922
H            3.71558032353836        1.22457890791981        1.06480540068292
H            3.98908821806492        1.04688216206349       -0.68122822987168
H            2.69708028950078        2.12203157098324       -0.08158255656013
H            3.58237211460615       -1.63705779516528        0.04776338524250
H           -1.68063419795286        3.11638223111784       -0.02521048118174
H           -2.85726884558051        2.14562748104884       -0.95180637525837
H           -2.90927457734718        2.12877272355229        0.81346059714814
H           -1.18874567429418       -3.15307647033764        0.83113460830951
H           -1.16468678355611       -3.13384607716538       -0.95441848441972
H           -2.59171851401888       -2.51315795531935       -0.07414938085003
H            1.71327291696413       -3.17262460260808       -0.00811864024688
25
 energy: 18.374924302905 xtb: 6.6.1 (8d0f1dd)
C            3.21856749808628        1.18344009428760        0.08658080898369
N            2.28056056168036        0.10364604963768        0.03182652247716
C            2.60499820045206       -1.25017192813865        0.03418705946076
N            1.48778538569260       -2.07526444938961        0.00267444427146
C            0.41898521177743       -1.14600502277665       -0.01005665606027
C            0.88994555450901        0.18082242262538        0.01059874543832
C            0.09120149477725        1.36534437216749       -0.00606474914281
O            0.47846361322054        2.54639899122129       -0.00259185326241
N           -1.30531316277714        1.07918973296130       -0.03216981304212
C           -2.25134466549876        2.19479272562478       -0.04993626492627
C           -1.83446998441941       -0.16594827721181       -0.04960128778030
O           -3.03730623010798       -0.35522298549725       -0.07455667021941
N           -0.95211024578243       -1.28347770921148       -0.03844992447842
C           -1.51932893379748       -2.59998763383565       -0.06017215601443
H            3.71352914161712        1.22460015933528        1.06324683580640
H            3.98203085665727        1.05292814705365       -0.68459459552478
H            2.69334761848237        2.12465618758300       -0.07681648480139
H            3.58835549530813       -1.63180579207116        0.04966133071264
H           -1.68598105950923        3.12595786252456       -0.02523694343601
H           -2.86631269404128        2.16028249825921       -0.95112592415715
H           -2.91815136232191        2.14333538438836        0.81254601173341
H           -1.20008122749893       -3.14262710700783        0.83108101615723
H           -1.17642360507565       -3.12410144716274       -0.95381747873880
H           -2.60327257654944       -2.50101062174366       -0.07383819831951
H            1.81453978305545       -3.22074305145109       -0.00633987898969
25
 energy: 20.563516852046 xtb: 6.6.1 (8d0f1dd)
C            3.21791114341633        1.18196936298845        0.08641521222205
N            2.28129329737614        0.10003983704705        0.03123940718731
C            2.60166414869661       -1.25049278283298        0.03502189956144
N            1.48771294329520       -2.07662160746815        0.00306502153669
C            0.41871385440278       -1.14742295057357       -0.01017635083646
C            0.89074498613353        0.17793178023204        0.01039962643705
C            0.09129903675710        1.36484630694654       -0.00602438936683
O            0.47849355315914        2.54257930507850       -0.00231757422395
N           -1.30693101975842        1.08316926371739       -0.03228917276216
C           -2.25286473029756        2.19736801094109       -0.05005086083972
C           -1.83579985447084       -0.16406034386975       -0.04983829399630
O           -3.03674445257976       -0.35677012394878       -0.07505938656412
N           -0.95184171303553       -1.27966121401150       -0.03844551256323
C           -1.52098486784209       -2.59775901764799       -0.06004668518895
H            3.71263529615068        1.22346518996267        1.06270068588175
H            3.98029947184663        1.05476274233369       -0.68579296316226
H            2.69132064716008        2.12330897578227       -0.07533731024886
H            3.58758539941906       -1.62987566171870        0.04989643060632
H           -1.68834317225777        3.12864038534145       -0.02534781589961
H           -2.86777792762375        2.16203715591697       -0.95122354696651
H           -2.91953382972356        2.14509058158271        0.81249369504309
H           -1.20216478412441       -3.14017923394954        0.83124636697562
H           -1.17869771505129       -3.12183639439463       -0.95371085595250
H           -2.60491904411013       -2.49952467056547       -0.07366442185053
H            1.83914400099801       -3.23197629471773       -0.00611930888205
25
 energy: 21.531907786086 xtb: 6.6.1 (8d0f1dd)
C            3.21803827653679        1.18099447637354        0.08631136337856
N            2.28252620330623        0.09728678884727        0.03090079630100
C            2.59812905062336       -1.25035516560681        0.03601042727548
N            1.48506316434545       -2.07422975547277        0.00345932649734
C            0.41707887452856       -1.14569473357556       -0.01037664904595
C            0.89212944583508        0.17771381693560        0.01022152941230
C            0.09144972679841        1.36594999320472       -0.00609906805268
O            0.47876397411580        2.54183469636023       -0.00210566431272
N           -1.30656564251583        1.08465768583350       -0.03234723347875
C           -2.25277848385840        2.19761057440134       -0.05006171760134
C           -1.83709755249403       -0.16347937282245       -0.04991414572238
O           -3.03680455613679       -0.35703789687519       -0.07517737479464
N           -0.95193024878505       -1.27742151878900       -0.03844979468748
C           -1.52040474096446       -2.59743025729870       -0.06002544840845
H            3.71230639338918        1.22270950956904        1.06249090452836
H            3.98010127297464        1.05523802607537       -0.68607660211281
H            2.69014665638753        2.12185319016781       -0.07509294053047
H            3.58525518091895       -1.62903876953707        0.04956460274551
H           -1.68935852658721        3.12939812542766       -0.02537799859824
H           -2.86770906160098        2.16164763287554       -0.95124446335461
H           -2.91936102883807        2.14469154562512        0.81257737720839
H           -1.20102455011746       -3.13909425283206        0.83131057756100
H           -1.17768257030054       -3.12074239530308       -0.95376225363299
H           -2.60435995990833       -2.50050714223503       -0.07361077322197
H            1.84630337028339       -3.23752619917701       -0.00609088120518
25
 energy: 21.980452232284 xtb: 6.6.1 (8d0f1dd)
C            3.21822880801373        1.18096563285819        0.08628573486286
N            2.28336499203014        0.09642428916005        0.03071160473464
C            2.59655427278815       -1.25040356024009        0.03697160756970
N            1.48306893568236       -2.07230447386020        0.00376961135527
C            0.41600146028748       -1.14410636315649       -0.01060032497235
C            0.89284250282651        0.17861700259840        0.01006924892375
C            0.09150056010011        1.36685355319257       -0.00617007298344
O            0.47881972382137        2.54264525209210       -0.00205801342121
N           -1.30595025416269        1.08453502765635       -0.03235436410381
C           -2.25235755184795        2.19719275151623       -0.05003613995461
C           -1.83773860905169       -0.16347726459867       -0.04987829466668
O           -3.03717848620093       -0.35652662592794       -0.07507949669246
N           -0.95224776334832       -1.27679932802520       -0.03846395033363
C           -1.51968806976552       -2.59766323860749       -0.06006063016813
H            3.71223944275518        1.22276505545509        1.06252272863570
H            3.98046321701666        1.05533821949071       -0.68590783606959
H            2.68969781838995        2.12134891151902       -0.07532944071809
H            3.58390387221485       -1.62906455840512        0.04891436130315
H           -1.68951218854125        3.12937184124479       -0.02535709162966
H           -2.86741235647881        2.16117377067261       -0.95120183607398
H           -2.91901905564809        2.14420058857192        0.81261364985998
H           -1.19974497998298       -3.13884112484898        0.83126277631625
H           -1.17644189317190       -3.12044007748661       -0.95381085789921
H           -2.60365215832368       -2.50137290977048       -0.07362608368322
H            1.84647242853352       -3.24140376892873       -0.00615299404394
25
 energy: 22.614757227004 xtb: 6.6.1 (8d0f1dd)
C            3.21839461262698        1.18137594393094        0.08630460613494
N            2.28416280258457        0.09622139057653        0.03050250540038
C            2.59566247366453       -1.25062386501438        0.03859214861063
N            1.48132004276141       -2.07033910698373        0.00422956499359
C            0.41518513256940       -1.14244653010292       -0.01098605112435
C            0.89334821083832        0.18017343722147        0.00986468012324
C            0.09146090598766        1.36780700091706       -0.00624442047185
O            0.47869291605533        2.54411105072318       -0.00211914877328
N           -1.30535258219346        1.08403029368200       -0.03235392173978
C           -2.25198257897043        2.19673301787954       -0.05000443287285
C           -1.83814934364762       -0.16355660657811       -0.04980400780576
O           -3.03766554128338       -0.35567976191757       -0.07487260347769
N           -0.95263784647739       -1.27661331809275       -0.03850377635034
C           -1.51903836113594       -2.59790877843839       -0.06011867904811
H            3.71219694662665        1.22327602088247        1.06266323296358
H            3.98102037965077        1.05557370158052       -0.68556396745666
H            2.68937708988276        2.12125092041840       -0.07567861766775
H            3.58296564049819       -1.62936827068536        0.04759251189351
H           -1.68952134103764        3.12923806888724       -0.02531869350456
H           -2.86716400056129        2.16078540182871       -0.95115449827351
H           -2.91875968599800        2.14378430907979        0.81262871168910
H           -1.19863514258465       -3.13875096414702        0.83118115173708
H           -1.17534196638201       -3.12031788998676       -0.95385222224805
H           -2.60300852978281       -2.50193517803236       -0.07366529390677
H            1.84568443424430       -3.24779168545652       -0.00628488267749
25
 energy: 23.176212723504 xtb: 6.6.1 (8d0f1dd)
C            3.21842427243611        1.18182458252681        0.08636108950820
N            2.28427549658095        0.09673137054607        0.03042671901528
C            2.59592507832871       -1.25073242198261        0.04017877061100
N            1.48113973203278       -2.06948176330396        0.00463604255410
C            0.41518741201510       -1.14186079109688       -0.01136116087388
C            0.89328473871035        0.18122553957394        0.00973066276901
C            0.09131995056919        1.36822410882133       -0.00627595346335
O            0.47846354465791        2.54501763027405       -0.00226541098287
N           -1.30530374927475        1.08380923175754       -0.03235476661039
C           -2.25206018427659        2.19673342012930       -0.04999577188851
C           -1.83806941681168       -0.16353896497262       -0.04975477551078
O           -3.03784111559921       -0.35518256306681       -0.07471011062295
N           -0.95279522082930       -1.27681261892969       -0.03857120726149
C           -1.51895251499423       -2.59787164206687       -0.06016159650031
H            3.71220427782283        1.22377474934149        1.06279461932457
H            3.98130347766548        1.05578662699707       -0.68533776319489
H            2.68944622256700        2.12159229806418       -0.07583077127888
H            3.58304431778322       -1.62951868508759        0.04618698443687
H           -1.68951945255332        3.12922385322478       -0.02530107363757
H           -2.86722190517100        2.16080087134411       -0.95115319719340
H           -2.91884219494220        2.14378250512909        0.81262304206367
H           -1.19855122684570       -3.13877091158711        0.83113753410477
H           -1.17524330309996       -3.12037834528467       -0.95386063720941
H           -2.60293541168979       -2.50176687404063       -0.07369907317607
H            1.84553184285435       -3.25358260413827       -0.00640829883544
25
 energy: 23.750033886581 xtb: 6.6.1 (8d0f1dd)
C            3.21838723509483        1.18211834117670        0.08644247506106
N            2.28370428760123        0.09769788673838        0.03052748117589
C            2.59686490040025       -1.25050450982033        0.04212827433087
N            1.48228059187887       -2.06933696103714        0.00510730628281
C            0.41573450849359       -1.14219391819172       -0.01181446839020
C            0.89274443669221        0.18161060607454        0.00963503451420
C            0.09110804491459        1.36824200826790       -0.00628582071623
O            0.47821567139855        2.54524927947460       -0.00246563033096
N           -1.30578216671837        1.08409042330400       -0.03236309239469
C           -2.25256732100318        2.19719669931576       -0.05000895325476
C           -1.83769734733022       -0.16333121251574       -0.04974482139082
O           -3.03773588052605       -0.35510264212138       -0.07460638685404
N           -0.95276883671601       -1.27709349388956       -0.03870797719844
C           -1.51930992004086       -2.59753732491464       -0.06020091292044
H            3.71228160405958        1.22400981326233        1.06287590470015
H            3.98125334553154        1.05580022823874       -0.68529573980905
H            2.68994905810428        2.12222124927968       -0.07577932901676
H            3.58378144629942       -1.62927664479238        0.04445694564927
H           -1.68963193117231        3.12940808699603       -0.02531316539553
H           -2.86758329101832        2.16116924241832       -0.95119313991982
H           -2.91923718659966        2.14414970940420        0.81261339356350
H           -1.19920402064597       -3.13874483734835        0.83113069944443
H           -1.17588448426692       -3.12048404071419       -0.95384930559277
H           -2.60331642330700       -2.50115482257443       -0.07372851263203
H            1.84662834681213       -3.25917456385931       -0.00652636275836
25
 energy: 23.645805755169 xtb: 6.6.1 (8d0f1dd)
C            3.21839886323005        1.18195507030130        0.08643873029934
N            2.28342457021092        0.09774762696294        0.03066753558868
C            2.59694596153629       -1.25021652464446        0.04243006468436
N            1.48274454097040       -2.06948792725013        0.00517180289009
C            0.41582738808738       -1.14255596193275       -0.01188680674918
C            0.89262475916978        0.18115790102590        0.00962711487421
C            0.09111198714277        1.36809821035109       -0.00628963544152
O            0.47829417874084        2.54486417337748       -0.00246720913682
N           -1.30592461231765        1.08430042115847       -0.03236701712687
C           -2.25264870426200        2.19730094349106       -0.05001294696107
C           -1.83767156496476       -0.16328318696548       -0.04976793387192
O           -3.03762760596987       -0.35532961111996       -0.07463201660760
N           -0.95269923208851       -1.27704616999136       -0.03876767342285
C           -1.51940735086617       -2.59749272070887       -0.06020967680550
H            3.71231968572885        1.22378451065451        1.06282449397328
H            3.98108585395214        1.05559544111226       -0.68541114388390
H            2.69014583694456        2.12223718958953       -0.07570498714857
H            3.58387724319164       -1.62906645846388        0.04425520285228
H           -1.68967468065750        3.12945905649718       -0.02532492471958
H           -2.86764492204101        2.16124910828531       -0.95119317686884
H           -2.91928654118819        2.14423948420794        0.81261564434190
H           -1.19933013861788       -3.13869949036618        0.83113668881882
H           -1.17603180768580       -3.12048683465722       -0.95385111141925
H           -2.60341846495660       -2.50116690243962       -0.07372879792701
H            1.84677942464655       -3.25812874630305       -0.00651832408521
