25
 energy: 0.000000000000 xtb: 6.6.1 (8d0f1dd)
C            3.23720163006194        1.16630919979326        0.08434469647475
N            2.29877817382611        0.07527477071623        0.03981603040599
C            2.58028210190900       -1.21425402444508        0.03006176031096
N            1.43813958087363       -1.93419271955128        0.00098261760884
C            0.39035688448383       -1.05887472636071       -0.00790371836672
C            0.93510056364412        0.21347819449412        0.01709077491437
C            0.09450143893243        1.40504303904423       -0.00410947031874
O            0.49712751527797        2.54126714362870       -0.00342325688240
N           -1.25076640035757        1.06271879480407       -0.03085478223738
C           -2.21907211982101        2.15522099834493       -0.05001256985998
C           -1.81739487048744       -0.20012725993278       -0.04692818574614
O           -2.99983886758376       -0.37846417018721       -0.07008878229737
N           -0.92618586207120       -1.30210215599479       -0.03682761578324
C           -1.46982264913417       -2.64643102187190       -0.06029820460571
H            3.71247264356769        1.21471455160235        1.06488849150277
H            4.00791497605742        1.03430808813993       -0.67357694370751
H            2.69910007168542        2.09770118228144       -0.09130154882931
H            3.56654120610678       -1.63682992603973        0.04233140067262
H           -1.67107961066214        3.09322851271934       -0.02552706933167
H           -2.82428953597071        2.09428624779827       -0.95318082946668
H           -2.87644029173232        2.07745725625962        0.81450067533302
H           -1.17061996399332       -3.19584890659852        0.83242232437030
H           -1.14560257411436       -3.17511610292205       -0.95688275822323
H           -2.55549792440841       -2.55659984320617       -0.07459039797972
H            1.38130855184625       -2.94313852034425       -0.01389874181052
25
 energy: 0.001125114515 xtb: 6.6.1 (8d0f1dd)
C            3.23011945171899        1.17773203161667        0.08568338953707
N            2.29173491124859        0.09266268314237        0.03767967663065
C            2.59462524948390       -1.23359641314311        0.03093785964030
N            1.46086439131574       -1.99851379610219        0.00121232494056
C            0.40350460780467       -1.09233279933269       -0.00866754045614
C            0.91685015587123        0.20780473368338        0.01488527280442
C            0.09242349681696        1.39769023679599       -0.00492551801583
O            0.49075034224918        2.56411419134175       -0.00321803020632
N           -1.27030396630022        1.06573581576027       -0.03126023881733
C           -2.23168545677471        2.16771924971130       -0.04990414675542
C           -1.82613603819729       -0.18837936399863       -0.04788024508506
O           -3.02391569330357       -0.36508221628014       -0.07143517873890
N           -0.93701056043981       -1.29966805351080       -0.03749319891806
C           -1.48672839538400       -2.63002879839072       -0.06030150558250
H            3.71384567157136        1.22035105031239        1.06552355750009
H            3.99856176543060        1.03926239999213       -0.67682165601237
H            2.69905767362841        2.11225799208657       -0.08773265336940
H            3.57363705699782       -1.64046870654630        0.04454459145194
H           -1.67773125816541        3.10447648653917       -0.02543425787819
H           -2.84087708031177        2.11852542707343       -0.95260896264373
H           -2.89303992682213        2.10170112748364        0.81403225233122
H           -1.17607419807073       -3.17394359889007        0.83246695949898
H           -1.15145309227305       -3.15381907051936       -0.95627162538020
H           -2.57164374017436       -2.53489423130362       -0.07436529783273
H            1.53283930001580       -3.07027777534939       -0.01161193249573
25
 energy: 15.626036354167 xtb: 6.6.1 (8d0f1dd)
C            3.22156659487354        1.18283260183201        0.08647348137458
N            2.27861283330307        0.10602849530627        0.03398790146683
C            2.59873454308022       -1.24591189582218        0.03288825992848
N            1.48073470128455       -2.06708132616036        0.00189250560897
C            0.41343630104647       -1.13343603017655       -0.00958010082314
C            0.89186057014386        0.19211074252367        0.01190179050554
C            0.08929235942914        1.37859709806925       -0.00570320211795
O            0.47916614508071        2.56121837510760       -0.00258257206976
N           -1.29695870664850        1.07652223136322       -0.03174349311428
C           -2.24732973938009        2.18888160286439       -0.04986228431916
C           -1.83354538773634       -0.16798644669726       -0.04882925802969
O           -3.03783959146470       -0.34903564301263       -0.07321162384299
N           -0.95185612569435       -1.28717374767288       -0.03813345704186
C           -1.50891217296647       -2.60649358296862       -0.06029023555443
H            3.71426972364885        1.22298058935459        1.06444642400993
H            3.98772867210196        1.04421948693587       -0.68101939141433
H            2.69994453629930        2.12396210507734       -0.08212149414003
H            3.57634862188215       -1.63379795131398        0.04769644381957
H           -1.68583659487684        3.12278148612076       -0.02530850751602
H           -2.86024280798413        2.14904311481977       -0.95189761440504
H           -2.91231901380224        2.13220893717322        0.81333123123545
H           -1.18725332217396       -3.14835951252955        0.83072215534041
H           -1.16325918420650       -3.12908763807714       -0.95390500238983
H           -2.59298062699180       -2.51283673263460       -0.07413754283966
H            1.75885233968832       -3.21115775731019       -0.00798051752429
25
 energy: 29.024655213523 xtb: 6.6.1 (8d0f1dd)
C            3.21628369697822        1.18244260550897        0.08630372100200
N            2.27447829049750        0.10475313329082        0.03190632405195
C            2.59761335519706       -1.25113125056329        0.03452025759111
N            1.49262263240974       -2.09757859409043        0.00262274553627
C            0.41868236403352       -1.15342837605436       -0.01003338183176
C            0.88379308349430        0.17949991604924        0.01069127373495
C            0.08759390129342        1.36857821260110       -0.00573208325175
O            0.47452989376927        2.55035495384120       -0.00202454479613
N           -1.31059818819272        1.08771241258957       -0.03210173147753
C           -2.25728474791776        2.20296188123840       -0.05003212523857
C           -1.83730461717133       -0.15755651000850       -0.04959042034896
O           -3.04043782478227       -0.34707497437650       -0.07472781440112
N           -0.95582392846265       -1.27685377112417       -0.03839795380250
C           -1.52188944718394       -2.59293993151003       -0.06014270566761
H            3.71168778537232        1.22285275776786        1.06286756744884
H            3.97974845755793        1.04938385996490       -0.68456482167931
H            2.69726929080912        2.12748223414403       -0.07750890374546
H            3.58127564571291       -1.62795656698663        0.04968409728310
H           -1.69483311558363        3.13598037208401       -0.02537331486379
H           -2.87248252969709        2.16685671856037       -0.95110669122854
H           -2.92443092989429        2.14995054065557        0.81219908683029
H           -1.19789775626641       -3.13383717334822        0.83052650182220
H           -1.17437380324878       -3.11528120285214       -0.95310534731467
H           -2.60589057587841       -2.49943794114130       -0.07381140680511
H            1.88988373509018       -3.28670470406846       -0.00603443270063
25
 energy: 35.671067994495 xtb: 6.6.1 (8d0f1dd)
C            3.21557358242181        1.18068052144600        0.08612211646284
N            2.27424405684977        0.10154344362978        0.03122519479200
C            2.59146296719327       -1.25213857686597        0.03573474783624
N            1.49185767747714       -2.10210315920885        0.00326062006284
C            0.41710343719288       -1.15440408358324       -0.01029841757746
C            0.88289221048582        0.17721920716608        0.01048566798427
C            0.08666809152838        1.36893934781948       -0.00556881907154
O            0.47303271127715        2.54735375938908       -0.00171666997137
N           -1.31471452475321        1.09460306791639       -0.03218529136851
C           -2.26079842813258        2.20811458948850       -0.05016178800261
C           -1.84072596544926       -0.15289301228819       -0.04983464123994
O           -3.04174589153164       -0.34707060798537       -0.07525818471459
N           -0.95751590967993       -1.26947605418073       -0.03846056455265
C           -1.52445092527588       -2.58819405553522       -0.06003673509229
H            3.71067493725546        1.22162705175686        1.06230582213782
H            3.97775304264069        1.05064277362721       -0.68587172841431
H            2.69624984049380        2.12664798222397       -0.07618367040528
H            3.57841127809209       -1.62543370351326        0.04988140244910
H           -1.69903259566960        3.14109242255695       -0.02550685888041
H           -2.87586048095378        2.17080504221194       -0.95130905564073
H           -2.92774353711806        2.15394975789114        0.81221728624826
H           -1.19950241796184       -3.12842155246075        0.83049854179766
H           -1.17624858562787       -3.11008760720926       -0.95281053196861
H           -2.60851551276519       -2.49766968549874       -0.07363956312660
H            1.94314560994680       -3.32629826662178       -0.00585498359683
25
 energy: 42.059843119906 xtb: 6.6.1 (8d0f1dd)
C            3.21389747536546        1.17825393929561        0.08577079872311
N            2.26863429184610        0.10131884140309        0.03066052818586
C            2.57664063282154       -1.25122366487636        0.03784120353493
N            1.48751801590115       -2.11045956380724        0.00547497107857
C            0.41201971561940       -1.15474921681417       -0.01073195609176
C            0.87654993199393        0.17810932525400        0.01029636923874
C            0.08454620002896        1.37168599787701       -0.00522580467663
O            0.46874542335682        2.54841977876997       -0.00170246343815
N           -1.32114524154971        1.10410172787741       -0.03214787403862
C           -2.26501186198826        2.21612167145253       -0.05021671608978
C           -1.84587897699015       -0.14467249510214       -0.05001672462460
O           -3.04557375358406       -0.34211880838307       -0.07551956217377
N           -0.96356789366462       -1.25849383412658       -0.03882521593865
C           -1.52822840950440       -2.58078213070765       -0.06005918182512
H            3.70913133836623        1.21845818772228        1.06153856502353
H            3.97515289879927        1.04813156111762       -0.68675424121427
H            2.69809379651576        2.12710127699511       -0.07576408219158
H            3.56660796857294       -1.62045071678553        0.04949810499343
H           -1.70287736949123        3.14859114838879       -0.02555704061436
H           -2.87961138788029        2.17727507455442       -0.95163389917355
H           -2.93147275515315        2.16050572253809        0.81248709839137
H           -1.19925368350197       -3.11994083682173        0.82956906519496
H           -1.17633237361866       -3.10193543710007       -0.95173853202784
H           -2.61236023179589       -2.49665736013070       -0.07359246681371
H            2.04599091747104       -3.40756158641863       -0.00661704728484
25
 energy: 38.294580653492 xtb: 6.6.1 (8d0f1dd)
C            3.21144865183722        1.17271134776551        0.08540230901864
N            2.25399996494337        0.10228800833897        0.03054356040566
C            2.53736701873810       -1.24704204906122        0.03922962100914
N            1.46955965791057       -2.11740398699971        0.00845764039958
C            0.39889285899079       -1.14579081558476       -0.01137857409864
C            0.86348284142821        0.18712407833545        0.01010907122028
C            0.08087325624118        1.38207212872795       -0.00470677531299
O            0.45931582928300        2.55454450629931       -0.00189244182921
N           -1.32998286515197        1.12182309142025       -0.03207995545249
C           -2.27081049093709        2.22920560866071       -0.05036230671025
C           -1.85311825951243       -0.13064380452447       -0.05005068697852
O           -3.05114192593560       -0.33178639442413       -0.07577283946330
N           -0.97566972590363       -1.23675086401695       -0.03907658885103
C           -1.53358755813401       -2.56751641076575       -0.05993934844263
H            3.70679510009353        1.21227756731230        1.06025917997779
H            3.97135886677144        1.04205391806674       -0.68760990227955
H            2.70369724466339        2.12788880262184       -0.07516750221204
H            3.53374519458924       -1.61475895433158        0.04871522847929
H           -1.70750803142688        3.16016956280386       -0.02569134325862
H           -2.88394952772821        2.18616420548010       -0.95230844063435
H           -2.93580530200209        2.16953017188080        0.81295183315195
H           -1.19813741408693       -3.10686500215376        0.82714905189929
H           -1.17562502532832       -3.08923054111705       -0.94887610606460
H           -2.61782476596882       -2.49507848899754       -0.07347124937051
H            2.25483907456213       -3.57595708356484       -0.00739953845559
25
 energy: 32.711485599821 xtb: 6.6.1 (8d0f1dd)
C            3.20868809331166        1.16589481928744        0.08525446416718
N            2.23868000939203        0.10012845151937        0.03198755969641
C            2.49064944809357       -1.24359104879147        0.03776786876354
N            1.44445202405010       -2.10953982917867        0.00818646487633
C            0.38375504060307       -1.12669094544552       -0.01008836716280
C            0.85338706549119        0.20106925113577        0.01015600883233
C            0.07431584716419        1.39913853177157       -0.00530033740485
O            0.44820962513060        2.56286131493174       -0.00162558377449
N           -1.33195656584996        1.13750653139781       -0.03225889326783
C           -2.27404115448957        2.23967454101309       -0.05050481800357
C           -1.85780145297353       -0.12166942724464       -0.05001416427802
O           -3.05500687693135       -0.31968714915281       -0.07598530207921
N           -0.98466485037637       -1.21871207764096       -0.03815537452643
C           -1.53609804183708       -2.55710837819267       -0.05959291193809
H            3.70390099356962        1.20491548975793        1.05911498274903
H            3.96754499469387        1.03359400409045       -0.68752106459204
H            2.70983836667003        2.12727705772499       -0.07538303054690
H            3.49204287109904       -1.61556486913418        0.04844730476879
H           -1.71298820883783        3.17129860306526       -0.02594400671723
H           -2.88652409496480        2.19246649218496       -0.95242121532985
H           -2.93833516947151        2.17594721045716        0.81280339302134
H           -1.19459939170825       -3.09553533525961        0.82503480911389
H           -1.17212637546697       -3.07776408816588       -0.94605257236511
H           -2.62069365365781       -2.49398591434460       -0.07335390140616
H            2.46158612523226       -3.74289463361451       -0.00751741644897
25
 energy: 23.120986590630 xtb: 6.6.1 (8d0f1dd)
C            3.21042418474369        1.16185230623542        0.08477454204838
N            2.23290191231769        0.09214926773723        0.03709111690852
C            2.43455261190030       -1.23649981420188        0.03187547182764
N            1.37724497332476       -2.02560398620578        0.00423952914835
C            0.35623104844508       -1.05951808795577       -0.00761842108871
C            0.86045018935543        0.23837941970879        0.01141958939208
C            0.06411727245973        1.43408001806132       -0.00615216859261
O            0.44315897287314        2.58229798378233       -0.00125795251543
N           -1.31216372065513        1.13802658451353       -0.03229405761357
C           -2.26721260294142        2.23444064944423       -0.05039033718422
C           -1.85783582916967       -0.13232021878748       -0.04975135369775
O           -3.05629407277502       -0.30581947337724       -0.07543592614558
N           -0.98927460702991       -1.21291258800739       -0.03686429961500
C           -1.52942085694332       -2.55968528339482       -0.05948250141147
H            3.70237128349572        1.20068295080587        1.05872116973792
H            3.96934066631976        1.02601376919325       -0.68560322984118
H            2.71214854558609        2.12235585435185       -0.07849480907112
H            3.44222101756032       -1.63147801468982        0.04862873246867
H           -1.71387555413286        3.17057702061121       -0.02589505229155
H           -2.88090771979443        2.18640018016529       -0.95127199945419
H           -2.93264653396105        2.16961206716727        0.81176349422371
H           -1.18841176593956       -3.09591379671673        0.82469377116705
H           -1.16548417487028       -3.07736289766366       -0.94578792634731
H           -2.61438478897273       -2.49529186182054       -0.07344078862962
H            2.61496421673989       -3.93543344678446       -0.00643269727574
25
 energy: 20.492030646127 xtb: 6.6.1 (8d0f1dd)
C            3.21372844425897        1.16781663603253        0.08385169486415
N            2.23730788193166        0.09425241073083        0.03972331816599
C            2.40958493750676       -1.23168825167702        0.03021304017205
N            1.30898597687817       -1.95145159214333        0.00214945943496
C            0.33584983954231       -1.00075971395569       -0.00732263915001
C            0.87123482382312        0.27434742148880        0.01300809676607
C            0.05153541827328        1.46369868397737       -0.00502580224158
O            0.43947990101276        2.60835010647973       -0.00078151535998
N           -1.30061591640787        1.13982346151380       -0.03188029155946
C           -2.26639116565720        2.23291166277839       -0.05032126743835
C           -1.86272977358369       -0.13817371371047       -0.04971415579526
O           -3.06307084718394       -0.28558614029514       -0.07513728036356
N           -0.99859557133697       -1.20790592414996       -0.03765569351612
C           -1.52388324000341       -2.55981674318618       -0.05979812471710
H            3.70266742093743        1.20217720488335        1.05904210089682
H            3.97255008016198        1.02482823107701       -0.68470563319094
H            2.71271874584463        2.12432277507288       -0.08149127972675
H            3.41595211610134       -1.64142878651684        0.04788358342984
H           -1.71710651038597        3.17189998112284       -0.02565224342359
H           -2.87857257570912        2.18099020748161       -0.95160560148820
H           -2.93033664719853        2.16382252564839        0.81219902349515
H           -1.18173646365500       -3.09435001194950        0.82443731463515
H           -1.15881959213824       -3.07552278365905       -0.94613822273273
H           -2.60915985867010       -2.49620890639182       -0.07361963465969
H            2.73163724359385       -4.17732013848051       -0.00462435034959
25
 energy: 20.747298758382 xtb: 6.6.1 (8d0f1dd)
C            3.21602102365356        1.17561902057497        0.08411166142354
N            2.23908499701730        0.10575244259971        0.04014144693685
C            2.40720510715213       -1.22797436439369        0.03023138540375
N            1.27076477398334       -1.91397554928674        0.00101904182214
C            0.32782570005285       -0.96479880348218       -0.00743615966694
C            0.87664999296255        0.30414365453597        0.01425007435942
C            0.04271060019996        1.48481126023123       -0.00476505555505
O            0.43416267179914        2.63374856725576       -0.00132862332773
N           -1.30024871903415        1.14633718309998       -0.03178376885924
C           -2.27077038612578        2.23595722133557       -0.05038798774398
C           -1.86923632603449       -0.13473882645895       -0.04944312759774
O           -3.07036291658714       -0.27024719052544       -0.07454379452801
N           -1.00631887649570       -1.19965082385713       -0.03819279527402
C           -1.51684108235734       -2.55522383397675       -0.05968036442826
H            3.70434964193121        1.20646113710224        1.06005594622810
H            3.97542479332346        1.02660401632313       -0.68328379457496
H            2.71492968466359        2.13013039203891       -0.08268260604931
H            3.40382246166297       -1.64515270254504        0.04612441532543
H           -1.72120525420853        3.17452643866970       -0.02583588339734
H           -2.87996567025600        2.17815330032575       -0.95248931349789
H           -2.93170876705193        2.16111029186180        0.81311151260746
H           -1.17411228290011       -3.09096232537006        0.82431213445473
H           -1.15105636302822       -3.07212820166257       -0.94570893406159
H           -2.60272277918956       -2.49757493017710       -0.07362322595707
H            2.79381264280315       -4.40189877204704       -0.00513828789500
25
 energy: 20.764262522894 xtb: 6.6.1 (8d0f1dd)
C            3.21637193691985        1.18185182968157        0.08430776796580
N            2.23620466334345        0.11960815146452        0.03948089410067
C            2.41605323124172       -1.21859243639296        0.03061885996443
N            1.27000371101327       -1.89959051942812        0.00126338957143
C            0.32898659363105       -0.95208349061081       -0.00743516113114
C            0.87679180106907        0.31962467942682        0.01523577973588
C            0.03986039407123        1.49294178392253       -0.00450271236333
O            0.42995697442881        2.64622173865364       -0.00177340754651
N           -1.30309489357801        1.14972456709704       -0.03173494501061
C           -2.27314147710939        2.23834360327681       -0.05039123105180
C           -1.87215214646943       -0.13072370889167       -0.04936699022276
O           -3.07330042418881       -0.26662261491393       -0.07434396086061
N           -1.00767706704311       -1.19568894212068       -0.03829026630788
C           -1.51262375081616       -2.55125786422413       -0.05964045416904
H            3.70560380285545        1.21010500393700        1.06038989068365
H            3.97643497055018        1.02869810801800       -0.68250680022308
H            2.71774775819522        2.13685094643657       -0.08317791307205
H            3.40381854056116       -1.63841776561225        0.04568062519775
H           -1.72203264759051        3.17566006778658       -0.02575330964924
H           -2.88090996277871        2.17883028555086       -0.95277663823346
H           -2.93277544063912        2.16168313217358        0.81335625106036
H           -1.17122645310478       -3.08884249670337        0.82443070849813
H           -1.14796048549830       -3.06996437416049       -0.94579342055076
H           -2.59921338217454       -2.49657876298867       -0.07374265168650
H            2.79048842104665       -4.54275231920641       -0.00650040855203
25
 energy: 20.384649096452 xtb: 6.6.1 (8d0f1dd)
C            3.21807203992591        1.18958788401029        0.08480538072600
N            2.23260481320883        0.13811534930259        0.03873967162208
C            2.43178315131427       -1.20079549286815        0.03113791607136
N            1.29137671185216       -1.88869175754453        0.00207484424367
C            0.33494556617739       -0.95062668788061       -0.00732669485574
C            0.87490922720907        0.32785614645176        0.01586546015357
C            0.04054507765352        1.49493300931538       -0.00470436201551
O            0.42660473159750        2.65214907131538       -0.00227197808392
N           -1.30632831370925        1.15082529796360       -0.03184712084484
C           -2.27451179013465        2.23913895314491       -0.05043048761000
C           -1.87134709381747       -0.12685856256133       -0.04929260800814
O           -3.07237311901480       -0.26945493053590       -0.07420428394409
N           -1.00420149872334       -1.19523766297849       -0.03805781026809
C           -1.50961720080389       -2.54880277918699       -0.05949927671727
H            3.70809154678701        1.21411936703652        1.06104126355598
H            3.97795341223163        1.03148659162844       -0.68200757503066
H            2.72340771030247        2.14615568805258       -0.08302341770220
H            3.41104008127773       -1.62674304661363        0.04558705153967
H           -1.72262457304672        3.17586443324496       -0.02585367480579
H           -2.88198048689933        2.17961122295489       -0.95282697315262
H           -2.93378025397687        2.16247186254837        0.81339306387417
H           -1.17020252186663       -3.08846871932111        0.82464787981571
H           -1.14691024889450       -3.06956415086260       -0.94585019540724
H           -2.59702392195694       -2.49526785161574       -0.07365654402897
H            2.73178162124312       -4.65277463282857       -0.00940563297983
25
 energy: 19.983535181973 xtb: 6.6.1 (8d0f1dd)
C            3.22054323150790        1.19766209517844        0.08498406241491
N            2.23214316048279        0.15381674163188        0.03821870300566
C            2.44718594759577       -1.18151945414009        0.03189817609750
N            1.32407767463353       -1.88239013887886        0.00340644554549
C            0.34316496231548       -0.95943217989346       -0.00712853796268
C            0.87272476797772        0.32615255207316        0.01585756547033
C            0.04385102336646        1.49176027474623       -0.00463911170269
O            0.42503540105662        2.65067881527470       -0.00215852768422
N           -1.30841708500634        1.14999479904638       -0.03182650577439
C           -2.27477577572889        2.23842225314501       -0.05042849424736
C           -1.86674475219866       -0.12460905040269       -0.04928123535800
O           -3.06766044040045       -0.27673315034817       -0.07437570309229
N           -0.99699219675438       -1.19749453481772       -0.03770446585488
C           -1.50813576184123       -2.54866994016961       -0.05951199363787
H            3.71003938944398        1.21873692167201        1.06149169069274
H            3.97889969170152        1.03558314468349       -0.68248483280874
H            2.72803827206024        2.15508291592824       -0.08287165412502
H            3.42184775946614       -1.61723375667311        0.04613868413722
H           -1.72259926839532        3.17517163485403       -0.02576805575051
H           -2.88268370771157        2.18024045650397       -0.95289922110094
H           -2.93462258839301        2.16302341034056        0.81334798625997
H           -1.17029487260622       -3.08944681103576        0.82474381760007
H           -1.14696135284321       -3.07042429704682       -0.94610682816450
H           -2.59581611571752       -2.49383149240073       -0.07370252786983
H            2.64036730392489       -4.70551260709906       -0.01216553994269
25
 energy: 19.844876376144 xtb: 6.6.1 (8d0f1dd)
C            3.22211975094731        1.20129720801043        0.08520724198063
N            2.23493527451044        0.15720549809434        0.03821762281576
C            2.45159101709897       -1.17413174446730        0.03211712884134
N            1.34040654597280       -1.88234306693828        0.00380935754559
C            0.34719898694086       -0.96738915213142       -0.00716396187776
C            0.87213790979378        0.32025760933270        0.01515780199910
C            0.04610474305865        1.48858044351013       -0.00486504554692
O            0.42543294068717        2.64660433962464       -0.00216414062568
N           -1.30848196927154        1.14899757602229       -0.03188413461240
C           -2.27453104761680        2.23743959400298       -0.05045354496137
C           -1.86328302241401       -0.12491335830299       -0.04923302294117
O           -3.06415975438984       -0.28121601519569       -0.07434521641389
N           -0.99262372030528       -1.19907131915758       -0.03754588679319
C           -1.50841919001670       -2.54991188176981       -0.05943559892207
H            3.71071436143616        1.22070252608460        1.06185839834892
H            3.97928964615383        1.03798104179799       -0.68262417693322
H            2.72921172068322        2.15843767306199       -0.08241825423915
H            3.42707727484399       -1.61460937313017        0.04633608623377
H           -1.72251156797444        3.17451265308896       -0.02588550199096
H           -2.88292681690037        2.17992545046721       -0.95290310871224
H           -2.93472574793134        2.16282140331717        0.81340038613063
H           -1.17072240216387       -3.09036300412236        0.82484230120721
H           -1.14754268448521       -3.07137425435434       -0.94607839876775
H           -2.59578122250462       -2.49346746703318       -0.07352722766110
H            2.59170364178304       -4.69694377764030       -0.01338520795678
25
 energy: 19.811097624714 xtb: 6.6.1 (8d0f1dd)
C            3.22234440043486        1.20190801650716        0.08500863446014
N            2.23683568830840        0.15588914308154        0.03834372830536
C            2.45094427429214       -1.17369469140764        0.03233861761017
N            1.34290197043072       -1.88364730716921        0.00402553900102
C            0.34784420384433       -0.96986463524270       -0.00713186163485
C            0.87209355349775        0.31744638195978        0.01491409101783
C            0.04657982326577        1.48763866965845       -0.00464512178111
O            0.42603975605174        2.64478398989746       -0.00181069237858
N           -1.30810261416023        1.14875391047804       -0.03178884531664
C           -2.27428022860684        2.23721153171631       -0.05041408982274
C           -1.86246522885947       -0.12564867236964       -0.04925443570656
O           -3.06335809776846       -0.28189682878969       -0.07447567918700
N           -0.99182942137747       -1.19916845912405       -0.03756976389094
C           -1.50886120878872       -2.55061350875628       -0.05954650877833
H            3.71060727221947        1.22110156742431        1.06165076387224
H            3.97914534757461        1.03845407243903       -0.68294097045633
H            2.72833005870587        2.15827404605611       -0.08265503887264
H            3.42799075964657       -1.61420487014557        0.04658493959421
H           -1.72230839219708        3.17437115680127       -0.02575486392400
H           -2.88265931569317        2.17984442542020       -0.95292721639139
H           -2.93461769316822        2.16268543729825        0.81338395556629
H           -1.17089021758746       -3.09056700276984        0.82473551798485
H           -1.14762168205175       -3.07151253156203       -0.94618344628779
H           -2.59596289680254       -2.49363159631522       -0.07367676126600
H            2.58351455672539       -4.68488364291402       -0.01317659556994
25
 energy: 19.805050299624 xtb: 6.6.1 (8d0f1dd)
C            3.22243714085347        1.20192009267248        0.08516264742025
N            2.23750124940028        0.15517022238802        0.03837414969527
C            2.45031514274679       -1.17398612226039        0.03222919118961
N            1.34258773745051       -1.88409258359419        0.00384949636463
C            0.34781744468582       -0.97001428244696       -0.00722255266082
C            0.87202620853420        0.31700977879220        0.01469259947001
C            0.04649126655676        1.48769494057512       -0.00483366537327
O            0.42619879822558        2.64458308261042       -0.00197983063516
N           -1.30796483245098        1.14882326390011       -0.03186112792745
C           -2.27432477465495        2.23717957801387       -0.05044156429332
C           -1.86246541324583       -0.12601661246490       -0.04922764456855
O           -3.06337611092395       -0.28168570895974       -0.07435536785489
N           -0.99192358093919       -1.19888769000032       -0.03759087720055
C           -1.50898191667307       -2.55077143143011       -0.05945784119773
H            3.71063432739201        1.22093400156300        1.06181798055455
H            3.97930638342545        1.03851918842743       -0.68271627854990
H            2.72817845994519        2.15807827626582       -0.08242379133421
H            3.42794283299270       -1.61406588411858        0.04644627444275
H           -1.72243619521829        3.17438578850617       -0.02586916014511
H           -2.88276556905844        2.17969735802571       -0.95289649194575
H           -2.93457258429311        2.16261395371634        0.81341216643756
H           -1.17078863353739       -3.09045700092420        0.82483331281841
H           -1.14763390666137       -3.07148201842315       -0.94608100844134
H           -2.59600057309606       -2.49371695034597       -0.07352207585792
H            2.58401176648009       -4.68240463831617       -0.01330464425979
