25
 energy: 30.354484156983 xtb: 6.6.1 (8d0f1dd)
C            3.80168234391621        3.21408852813638        0.17039805700429
N            2.29551076158808       -0.73696872537878       -0.02681866445537
C            2.30998291680730       -2.02949443769314       -0.00294058980472
N            1.05427404857236       -2.58730563667899       -0.01100948166471
C            0.19285868594543       -1.53576622717256       -0.02662757679172
C            0.97057142432368       -0.38478420441101       -0.02608523691531
C            0.32609542127445        0.90897147718246       -0.01249501216277
O            0.86076284397963        1.99016304075123       -0.00637219892232
N           -1.07972845310995        0.80961385759936       -0.03463734419097
C           -1.83855660400035        2.05429114544228       -0.03521273256802
C           -1.84747881290829       -0.33094321273521       -0.05876807069170
O           -3.05708367346994       -0.30489673481892       -0.08373700897507
N           -1.16518115484565       -1.54895916969946       -0.05365418185496
C           -1.92263827523081       -2.78203682629674       -0.07773083646638
H            4.24141778091030        3.40904103875118        1.12109381266422
H            4.38287770863792        3.22810879661078       -0.72349961582053
H            2.80025209907621        2.87695423612256        0.11050185170392
H            3.20138960354678       -2.62070858422988        0.01285155740506
H           -1.11389938193859        2.86650102147598       -0.01523649589700
H           -2.45687870409737        2.11254697056849       -0.92819836931247
H           -2.48381299815250        2.08854893312625        0.84204178340536
H           -1.71925302447226       -3.38065692711265        0.81168760298152
H           -1.68823617909467       -3.35976928386123       -0.97406290710293
H           -2.98314353168813       -2.51095660394037       -0.09298293818977
H            0.85323215426733       -3.57451599013208       -0.02506783194873
