25
 energy: -3.750011655677 xtb: 6.6.1 (8d0f1dd)
C            3.20702441836085        1.29120163932773        0.09201783419015
N            2.36121155879525        0.09754994792802        0.04005651478490
C            2.62874040288328       -1.28023856382045        0.03846742358248
N            1.42571064384137       -1.97872688946508        0.00602931836786
C            0.41256529666232       -1.09593491695210       -0.01091922272376
C            0.95776044578759        0.18296589774038        0.00999303995443
C            0.14222128423443        1.33546609305476       -0.01029519363981
O            0.52400892753845        2.50799825765223       -0.02025846971681
N           -1.24901177527429        1.01511660420294       -0.03243403161551
C           -2.17811953895124        2.13197482338007       -0.04750739256711
C           -1.81341904328890       -0.22175632808654       -0.04987951025215
O           -3.01647461454595       -0.39553680361851       -0.07258939311682
N           -0.93855506344550       -1.32603870237493       -0.04092927824030
C           -1.52165838392417       -2.64826971807902       -0.06348857692170
H            3.71273653367611        1.41632854047932        1.05830199068639
H            3.98562365572250        1.26085157521988       -0.68091447993032
H            2.57297353938564        2.15881018714268       -0.06759472175970
H            3.58484587325976       -1.74280980364930        0.04655584022672
H           -1.60206670166892        3.05311470251417       -0.02520896628317
H           -2.78497513252339        2.10017956185416       -0.95089866827808
H           -2.82508313330380        2.08627885323981        0.82571077674027
H           -1.25172433191628       -3.21717858898109        0.82876181856755
H           -1.22442725714999       -3.19739513998190       -0.95954832678704
H           -2.60444006709344       -2.51062577689123       -0.07877792409152
H            1.32042554150371       -2.98130905594408       -0.00719175760017
