25
 energy: 41.850406422956 xtb: 6.6.1 (8d0f1dd)
C            3.42156054787266        2.35140640211457        0.15616833808135
N            2.39373973753895       -0.37552516269725        0.02456923848441
C            2.50250582955675       -1.66610955073096        0.03017687684996
N            1.30732217931041       -2.34448286727269        0.01185674245082
C            0.35094019801235       -1.37170314174035       -0.02370918580516
C            1.04345924935359       -0.15473065766045       -0.02030497648447
C            0.27129992353733        1.06597475208998       -0.07115841049419
O            0.68275626685964        2.19209194272572       -0.14228860935215
N           -1.10345475994304        0.85952358918587       -0.05256140717964
C           -1.92966927572158        2.07279240705476       -0.03335334539707
C           -1.77702387507155       -0.33230155925705       -0.06466883900812
O           -2.98810734741341       -0.34145909437778       -0.08160025166820
N           -1.01065091014837       -1.50798107805382       -0.06185010355175
C           -1.80051591026259       -2.72528181585542       -0.08269281870484
H            3.88419490121648        2.54094194710205        1.06326759221948
H            3.87073398003816        2.43327363200570       -0.77580843701578
H            2.38641186853219        2.53150737340404        0.14639336060755
H            3.41963867112063       -2.21191078875039        0.03419452152540
H           -1.25812119497755        2.91878764307584       -0.02335917718877
H           -2.55824424676944        2.13187459125772       -0.91891643391134
H           -2.52670532496229        2.10534176928523        0.87157694505813
H           -1.66253002704474       -3.34069068345878        0.80754891442589
H           -1.63268630797560       -3.32755691904116       -0.97649214692771
H           -2.85072156264413       -2.37984678726837       -0.09905292923641
H            1.18115530384769       -3.34542233311097        0.02720065558270
