25
 energy: 33.718849816608 xtb: 6.6.1 (8d0f1dd)
C            3.67655578615198        2.93788641599602        0.18492296956777
N            2.33037464274955       -0.62269989155426       -0.02231352393735
C            2.38776649029538       -1.91897029112428        0.00051084663462
N            1.14649273261673       -2.51724601561975        0.00667810696894
C            0.24734592214334       -1.49302287460981       -0.02422681628961
C            1.00651741801508       -0.32031523060338       -0.03396022633490
C            0.32742327125564        0.95505451534184       -0.05398932716904
O            0.82769467767833        2.05770868241070       -0.07411236993220
N           -1.06356563974556        0.82065430044886       -0.04177522090796
C           -1.83285744467812        2.06284054916542       -0.02502533673991
C           -1.81921662442930       -0.33469830175486       -0.06216697676201
O           -3.03048858564805       -0.29239548434486       -0.08069605202329
N           -1.11920875993958       -1.54788078553902       -0.05819579507758
C           -1.91398629383876       -2.76905594507756       -0.08080705535348
H            4.11427833883538        3.11586831109721        1.12936279167851
H            4.13637310068134        3.03054555012829       -0.76417274973697
H            2.64597819408564        2.79047567762840        0.15019801343757
H            3.29706005634064       -2.48310224855661        0.02887688620901
H           -1.12105497319044        2.88422445632853       -0.01400366059152
H           -2.45779707501818        2.13292929285788       -0.91386225590452
H           -2.46146248520094        2.08358325636356        0.86308616086420
H           -1.73838949654906       -3.38026978780425        0.80837825957620
H           -1.71414631100770       -3.36516647359358       -0.97329660447140
H           -2.97417947024853       -2.49075499819484       -0.09072520579154
H            0.97495911046817       -3.51316822621767        0.01462871125736
