  72
        -99.34705665
 N         -1.8948813895        3.0176992977        2.1200439500
 C         -2.0507492559        2.2899758546        1.1145916052
 C         -3.3534479224        2.1442953525        0.3734489051
 C         -3.7776344490        0.6859259878        0.3743353188
 C         -4.7963298777        0.2555505523       -0.4772017430
 C         -5.2317779632       -1.0599940121       -0.4776370107
 O         -6.2063036158       -1.5591804702       -1.2631573779
 C         -6.9007244790       -0.6995702377       -2.1362034474
 C         -4.6308251154       -1.9964979198        0.4086615687
 O         -5.1166182815       -3.2507162937        0.3404367989
 C         -4.6331075880       -4.2244526985        1.2360222350
 C         -3.6242113095       -1.5595218937        1.2564217007
 C         -3.2072133583       -0.2361859579        1.2404050406
 C         -3.0705389784        2.6344834137       -1.0743106918
 C         -2.2744123916        1.6591145299       -1.9513690649
 C         -0.8105173091        1.6226148023       -1.6249311754
 N         -0.0491529455        0.6430250160       -1.4235464994
 C          3.1704771867       -0.6435227702        0.3731957157
 C          3.2958327286       -0.9108012942       -1.0683552750
 C          4.5707553249       -0.5711861723       -0.2712028743
 C          5.1665643846        0.7327963644       -0.4633899955
 C          6.5134747486        0.9213505650       -0.3729628191
 C          7.3846078756       -0.1424130770       -0.0826240261
 O          8.7072518402       -0.0529588993        0.0322965358
 C          9.3570558729        1.1831728294       -0.1674573719
 C          6.8395562962       -1.4592803002        0.1115286537
 O          7.7609042090       -2.4066239347        0.3728677818
 C          7.3386926143       -3.7419821076        0.5343109845
 C          5.4929734617       -1.6580363752        0.0185384710
 C         -0.4583040296       -0.7285472996       -1.4112804104
 C         -4.5148522417        2.9756896996        0.9945014004
 C         -4.8409304977        2.5102987038        2.4118436948
 C         -4.2489491093        4.4784390558        0.9970980728
 H         -5.2604403767        0.9624537685       -1.1449668061
 H         -7.4032131877        0.1054273264       -1.5912483583
 H         -7.6464325692       -1.3225751553       -2.6260965651
 H         -6.2351035174       -0.2713256111       -2.8926204466
 H         -4.8001991765       -3.9294027360        2.2762084765
 H         -5.2017687169       -5.1270409465        1.0207452760
 H         -3.5679489316       -4.4209429935        1.0781968238
 H         -3.1588548243       -2.2444051268        1.9464755879
 H         -2.4386631439        0.0726602222        1.9315856593
 H         -4.0264404450        2.8343966867       -1.5621218983
 H         -2.5285821669        3.5811374321       -1.0184736045
 H         -2.7100005829        0.6604584978       -1.9095202825
 H         -2.3409583543        2.0105272808       -2.9871822471
 H         -1.2342126911        1.7257910797        0.6431972932
 H         -0.3282217203        2.5980089911       -1.5978974137
 H          3.0040428930       -1.4630759701        1.0542531700
 H          2.7432900404        0.2945633541        0.6902321486
 H          2.9450692663       -0.1617074537       -1.7609450641
 H          3.2183860172       -1.9247440775       -1.4262554702
 H          4.5165656868        1.5644064130       -0.6860025496
 H          6.9176488829        1.9091773556       -0.5271724196
 H          9.0213510333        1.9342902989        0.5544549832
 H          9.2010974552        1.5562436830       -1.1847588737
 H         10.4170192873        0.9844677708       -0.0133919070
 H          8.2494821972       -4.3204846412        0.6705517444
 H          6.6996121360       -3.8546320306        1.4155373894
 H          6.8073787382       -4.1008376100       -0.3513673023
 H          5.0694751770       -2.6386452347        0.1625748849
 H         -0.3240995496       -1.1500148443       -2.4104089764
 H         -1.4970204349       -0.8852298057       -1.0989957643
 H          0.2058406067       -1.2574788605       -0.7275065783
 H         -5.3962021805        2.7873327911        0.3694253902
 H         -3.9962082806        2.6972760262        3.0682257973
 H         -5.0793003738        1.4491589733        2.4345642491
 H         -5.6990606606        3.0615293227        2.7884853041
 H         -3.3543930051        4.6985752428        1.5719643511
 H         -4.1360075462        4.8733872465       -0.0089198282
 H         -5.0881552774        4.9883343572        1.4632148664
 H         -0.9638695812        3.0769605050        2.5195664517
