  25
        -42.13498218
 C          3.5820010368        3.0152856149        0.0410073574
 N          2.2526280339       -0.3144015754       -0.0081406075
 C          2.3881219823       -1.6062553369       -0.0074273262
 N          1.1817745827       -2.2540694480       -0.0065056980
 C          0.2309855582       -1.2865615718       -0.0055959180
 C          0.9202160989       -0.0660528003       -0.0072886988
 C          0.2004001353        1.1863649597       -0.0106088218
 O          0.6894619335        2.2933416030       -0.0229813638
 N         -1.1829707922        0.9946024623        0.0022337114
 C         -2.0251249963        2.1799469714        0.0095634440
 C         -1.8713509520       -0.2058806685        0.0053874469
 O         -3.0726126378       -0.2516897982        0.0142915526
 N         -1.1086201333       -1.3866372254       -0.0023758448
 C         -1.7908559635       -2.6629957326       -0.0061898332
 H          3.8861842860        2.7380763151        1.0318316134
 H          4.2302209057        2.8146953460       -0.7905243619
 H          2.6214147039        3.4672816195       -0.1165263775
 H          3.3297031820       -2.1184634590       -0.0110140354
 H         -1.3784774319        3.0538603945        0.0201202468
 H         -2.6614370289        2.1912192613       -0.8758092099
 H         -2.6687635873        2.1734917112        0.8895812544
 H         -1.5250054121       -3.2395004212        0.8807737646
 H         -1.5361308307       -3.2274225283       -0.9042434215
 H         -2.8628024971       -2.4679966106        0.0018799252
 H          1.0371710084       -3.2526275356       -0.0072182350
