25
 energy: -42.284813674863 xtb: 6.6.1 (8d0f1dd)
C            3.29156255587720        1.94846543118510        0.09600713935654
N            2.13286696808659        1.14367292616443        0.05697219397868
C            1.66789878740025       -3.43351638230680       -0.32394354947152
N            1.47658607552992       -1.33973996373566        0.00711669920914
C            0.28227695827736       -0.77295090499520       -0.01172272826043
C            0.00293830463301        0.66407431664642       -0.00717318264292
C            0.95018056450633        1.80901393222232        0.02440212718137
O            0.67618248639504        3.00810052340239        0.03157210018405
N           -1.37704907918207        0.79884733693911       -0.04228984900069
C           -2.14639291245196        2.03056003517515       -0.05439353018025
C           -2.00076327218182       -0.43054657244693       -0.06938097387021
O           -3.17941215377249       -0.65905670808053       -0.10167453882702
N           -0.96417221862215       -1.35706265643074       -0.03795352614927
C           -1.22996480329725       -2.76305979187308       -0.06905130522741
H            3.90962281794767        1.70834022089679        0.97546843646340
H            3.89987333642816        1.77164243032603       -0.81206609068034
H            3.03690676891785        3.01100339054489        0.17085808584945
H            2.53788448084620       -3.92167485439573        0.17807779524496
H           -1.48677267763252        2.89698050491547       -0.02489250721294
H           -2.76312718304749        2.08221152885115       -0.95826764784869
H           -2.82043410275786        2.06591991912067        0.80920725558039
H           -0.86016480863884       -3.22715922773947        0.84148621251978
H           -0.77802065960558       -3.21940923705694       -0.94368166538808
H           -2.30759629687944       -2.88272933779356       -0.12421786479811
H            1.36366578020778       -2.42406764084405        0.14871905305700
