72
 energy: -99.484299889169 xtb: 6.6.1 (8d0f1dd)
N           -1.74823193095141        3.04855982844613        2.37192978653853
C           -1.99115645242830        2.05737683085995        1.65400482780000
C           -3.01922339534041        2.03780778996124        0.54116889339631
C           -3.86036521498660        0.78451506484143        0.68515784015409
C           -4.59270857906023        0.23387738364597       -0.38721387488426
C           -5.20981149761431       -1.04427120636184       -0.38678745489711
O           -5.97077529946400       -1.62647207040890       -1.35942754603294
C           -6.24918759398382       -0.83682057604012       -2.46989522079704
C           -4.94079272205175       -1.74277145148808        0.76081125216496
O           -2.66872157855936       -2.21820517984406        0.49430954730769
C           -2.37796437189668       -3.12755073377194        1.50211605700450
C           -4.33180202566596       -1.17538606075165        1.90879107457232
C           -3.82654943909831        0.12581531701801        1.91729361335203
C           -2.15560177587544        2.04536816760288       -0.72537745592447
C           -1.56234038997727        0.66976210307116       -1.08757175132298
C           -0.10047575547260        0.75519330396883       -1.32522172067738
N            0.73136076425990       -0.32177658931004       -1.32463668591375
C            2.13458926295220       -0.30651417228389       -0.93043308157170
C            3.21823278047630       -0.50755898182602       -2.01604317316457
C            4.52986679376834       -0.43315419927727       -1.30980894895740
C            5.28396479528419        0.71823856698743       -1.27889568333116
C            6.47623778683620        0.73423280654412       -0.57323491031722
C            6.92187494001523       -0.37419596173212        0.12355895045653
O            8.10905482725774       -0.43533612246028        0.81492697796694
C            8.95010713461399        0.70742712413877        0.89139610451096
C            6.13077709513881       -1.54276747069303        0.11595218614957
O            6.60174790295815       -2.59323918110881        0.83372191810671
C            5.79246605383956       -3.73168670719622        0.97280484644955
C            4.96616758440029       -1.55573990833107       -0.61265362741083
C            0.15784807362959       -1.61368268853276       -1.58899370615559
C           -3.96462905381459        3.25427621667918        0.58938054797893
C           -4.74794175720502        3.27115066855623        1.89475222641742
C           -3.27412439681515        4.60666020074315        0.38959060270790
H           -4.69398929884558        0.81228682393250       -1.29195607237227
H           -6.72067836437592        0.09909858723732       -2.13858784525474
H           -6.97115223810720       -1.43567249066972       -3.01786820962354
H           -5.34930190015204       -0.61761479187467       -3.09097306017384
H           -2.91952266121253       -3.57801193788752        2.36676416779822
H           -1.88653519651979       -4.01052545151048        1.05758060610215
H           -1.80463008844050       -2.40949176559684        2.00365499037292
H           -4.17155802932338       -1.74321736203496        2.82899952216543
H           -3.42007017645354        0.60395113405379        2.81763993041536
H           -2.71458550852903        2.43137189289802       -1.56640553697524
H           -1.36645654564147        2.78007261639714       -0.53351042966732
H           -1.81769771803054       -0.06522979837725       -0.32610584923312
H           -2.06741488638995        0.24337238349051       -1.94116043831118
H           -1.38794773199237        1.19619318240719        1.82381408965240
H            0.34993557485968        1.73416403507454       -1.36230189372316
H            2.30007784477906       -1.12942328606880       -0.21526496471103
H            2.26839200531652        0.67239095836069       -0.42637374306588
H            3.14145460943286        0.30363696471219       -2.74380241549629
H            3.15008663001020       -1.49672061772990       -2.50048496661532
H            4.97817439903805        1.59913662186267       -1.82026892071925
H            7.08042441028373        1.62377561407294       -0.59361922574498
H            8.40773666732608        1.53463939073977        1.36834702161909
H            9.33520343418117        1.01798639638894       -0.09418675379447
H            9.78392080027995        0.41426282951393        1.53263923439918
H            6.33330334269957       -4.34844370306949        1.69705105441940
H            4.80922724894359       -3.46896276998531        1.37361071653125
H            5.64990110771022       -4.26340502491766        0.02205042265213
H            4.40362211188155       -2.47077238360769       -0.64621959378844
H           -0.08914405758406       -1.72717318832494       -2.67185602352215
H           -0.76313632067969       -1.77704656819943       -1.05786595190527
H            0.85563508923111       -2.37429560208319       -1.26936513142361
H           -4.69478315931426        3.11101869832834       -0.21337515388914
H           -4.07467171867673        3.44002226324585        2.72671359354045
H           -5.29907067324465        2.34429367424094        2.01641215432734
H           -5.46963454607112        4.07572142269991        1.88669472648493
H           -2.48092132871376        4.69051547261765        1.13460501942065
H           -2.84735482824121        4.71089478558304       -0.59886718943478
H           -3.99207790866647        5.41006547101163        0.49187149835380
H           -1.05790317968464        2.90127647104014        3.10690632193305
