25
 energy: 15.113235531314 xtb: 6.6.1 (8d0f1dd)
C            3.19657414723397        1.45929089970005        0.13935543188362
N            2.43240307992255        0.05251502363277        0.02597150101134
C            2.65900149676931       -1.36146832665170        0.13045370151938
N            1.44878649827291       -2.05824522304821        0.01783248459639
C            0.43753766083913       -1.17132802252386       -0.02775981710389
C            1.01685803546698        0.10290531576606       -0.00664738334538
C            0.20300407448853        1.24669488218124       -0.05162597377192
O            0.57998012657385        2.41819846008116       -0.13295113843140
N           -1.19617027738180        0.96523278714227       -0.03835942193356
C           -2.07918871174026        2.11552100479599       -0.02516873188978
C           -1.78363028923566       -0.25493332899845       -0.04771894940915
O           -2.98924639777753       -0.40233958282356       -0.04998668493849
N           -0.92642719760903       -1.37615340000433       -0.05474440354828
C           -1.58289449975591       -2.66707581793280       -0.06333798150978
H            3.66022985647012        1.72369345406295        1.08983263506465
H            3.97622351229618        1.55022621597400       -0.62937579097873
H            2.41399285609571        2.20350651630417       -0.04151567052149
H            3.57432627577734       -1.90022470871206        0.01451530291738
H           -1.44022711745050        2.99226388680666       -0.07152463036923
H           -2.75008838902352        2.05729898499961       -0.85763039850200
H           -2.62175289969903        2.13641048032716        0.90575915629404
H           -1.33109346005441       -3.24572408518389        0.82727393986588
H           -1.32680967903807       -3.23258443947469       -0.96072701410594
H           -2.65859028516649       -2.47185530325478       -0.06532150683656
H            1.35453472646981       -3.06786109315861       -0.01290378498769
