25
 energy: -6.137801990896 xtb: 6.6.1 (8d0f1dd)
C            3.23500611972532        1.22310177343391        0.09262304345124
N            2.32985369834461        0.10331249150151        0.03430218623913
C            2.61288014794384       -1.25585643531209        0.03113671473120
N            1.42141318661563       -1.95343408190260       -0.00133644027093
C            0.40385322588656       -1.07452075891217       -0.01307919202208
C            0.93640673978387        0.20757255328719        0.00837024866391
C            0.12989172035365        1.36439193082406       -0.00910325390365
O            0.51525471136174        2.53690249957827       -0.01353970063071
N           -1.25747458452396        1.03720403204951       -0.03063601577953
C           -2.19739660681928        2.14347658568700       -0.04628414450650
C           -1.81592417772130       -0.20416251064137       -0.04739851290464
O           -3.01642070419331       -0.38460862762503       -0.06918992600551
N           -0.94009808003292       -1.30853969220422       -0.03918346146929
C           -1.49032085637088       -2.64403283602990       -0.06074356237833
H            3.72223240989122        1.30291215340796        1.07027479630958
H            4.01499096399285        1.12504765175839       -0.66861117768612
H            2.65881366563433        2.13146045310275       -0.08136279479422
H            3.58045488670395       -1.69042145044701        0.04152856378742
H           -1.62901037384576        3.06976323950636       -0.02856652649733
H           -2.79707069473084        2.09355838203951       -0.94982795265961
H           -2.83992620230446        2.08668514112395        0.82851547962363
H           -1.19502621582293       -3.20152231465805        0.83126570292232
H           -1.17301217845670       -3.18212498621909       -0.95712707001924
H           -2.57507465896935       -2.54014722195988       -0.07367730074463
H            1.34878315398821       -2.95730913334347       -0.01379773371778
