25
 energy: 35.333378091799 xtb: 6.6.1 (8d0f1dd)
C            3.55747869828905        2.18273912641300        0.29087314348660
N            2.32900572040320       -0.30565863188586       -0.06633199065148
C            2.48816467991439       -1.58120362932133       -0.03786638410054
N            1.29183813326950       -2.27638498815463        0.01669369168770
C            0.32406948626703       -1.32735081945370       -0.04908882100298
C            0.97872702983592       -0.10052993547978       -0.09397650509200
C            0.21121496220446        1.10768331346913       -0.18705427286062
O            0.64493158082872        2.23191480879358       -0.29071566340191
N           -1.16006254076815        0.89604476432556       -0.07743224931112
C           -1.97528734085244        2.09666044917851       -0.01624395193064
C           -1.81516572311766       -0.30103995569976       -0.05337570626636
O           -3.02462313169273       -0.36513593378263       -0.00133603891414
N           -1.02976901784036       -1.45679751439016       -0.08260517123760
C           -1.74938766992751       -2.70692995029084       -0.08297262923253
H            3.93045235310425        2.35046378818886        1.26203112396578
H            4.18226367953110        2.15110237372432       -0.54519863476842
H            2.54930032091099        2.42844433130479        0.08610102114067
H            3.43686634849267       -2.07939354477582       -0.11455596047249
H           -1.29923709842272        2.91388219579401       -0.25540875198157
H           -2.80486689081439        2.01338789522674       -0.69970857807180
H           -2.30041678415511        2.23764679454168        1.01200877481318
H           -1.52451903756043       -3.30289296137274        0.80665276988468
H           -1.54425981049677       -3.28636129821053       -0.98063431657155
H           -2.80312277025013       -2.41580427053937       -0.06043198727741
H            1.19025450443021       -3.27934910859033        0.05792871189847
