  25
        -42.10527208
 C          3.2268748618        1.1154736198        0.0108975876
 N          2.2690446363        0.0426171429       -0.0021136421
 C          2.5314301987       -1.2613249033        0.0031233135
 N          1.3734867971       -1.9626004293        0.0044004350
 C          0.3410154836       -1.0729814010        0.0003373492
 C          0.8988261465        0.1996259442       -0.0014176807
 C          0.1026005224        1.3886920704       -0.0099048272
 O          0.4826790372        2.5381451771       -0.0281100291
 N         -1.3027891889        1.0747866548        0.0031769906
 C         -2.1578778402        2.1061337119        0.0167065471
 C         -1.8725135227       -0.2303140939        0.0008807354
 O         -3.0620896209       -0.3910008903        0.0067060319
 N         -0.9869285247       -1.3054913243       -0.0045155719
 C         -1.5219008988       -2.6551669228       -0.0152968823
 H          3.7044602134        1.1856637993        0.9895342786
 H          3.9943360353        0.9460484363       -0.7432050092
 H          2.7080760981        2.0512101934       -0.1930295940
 H          3.5094218524       -1.6992918267        0.0051181744
 H         -1.5443217535        5.1218061528        0.2055217033
 H         -1.7555402185        3.1117407349        0.0394736798
 H         -3.2112652934        1.9018243231        0.0090954894
 H         -1.2339446752       -3.1858904767        0.8924650271
 H         -1.1721212465       -3.1942871619       -0.8957566399
 H         -2.6076730154       -2.5806767385       -0.0519393267
 H          1.3017361466       -2.9698520561        0.0058319367
