25
 energy: -42.098319669012 gnorm: 0.001946617555 xtb: 6.6.1 (8d0f1dd)
C            2.28327421203750       -0.15765387242958        1.31476794291564
N            1.82132651437716       -0.37071978890912       -0.04150850342374
C            2.55523329253121       -1.10071795862476       -0.93555989879404
N            2.37270644258971       -1.27075101354030       -2.16355544056716
C           -0.57439603060627        0.16936039691258       -0.04006959130766
C            0.72711287882695        0.44325163618344       -0.47918368098867
C            1.01739738451912        1.47917919967343       -1.29048356695030
O            1.35756274330964        2.31344138463403       -2.00343904599033
N           -1.77049207352432        0.81816503620034       -0.19980280332414
C           -2.19603105112079        2.11116581563135       -0.64693866208473
C           -2.39421632609712       -0.20952389802181        0.57204744143208
O           -3.48728113691059       -0.43576401614329        0.93734913913353
N           -1.12037988279940       -0.83899009564804        0.71414082777742
C           -0.73579881188136       -2.16598623820420        1.09933071944267
H            2.89093618630263       -1.00375091164219        1.62870343129409
H            2.88791942178029        0.75083742841487        1.38962713020424
H            1.43229890705100       -0.06052447289035        1.98790852527084
H            3.39606556988413       -1.61841056686644       -0.48495570454107
H           -1.80370849158925        2.31730671504931       -1.64304781309113
H           -3.28430029456433        2.10258264482748       -0.68623677847938
H           -1.87312279233856        2.89781300533024        0.04023679438524
H            0.11157125595319       -2.14148180139722        1.78498523661995
H           -0.47760086027856       -2.77313903970693        0.22866806542118
H           -1.58847752967432       -2.61454909022059        1.60673694145048
H            1.61283198632796       -0.82290195701515       -2.65854908789916
