25
 energy: 0.000000000000 xtb: 6.6.1 (8d0f1dd)
C            3.23720132972391        1.16630909158653        0.08434468864950
N            2.29877796055224        0.07527476373246        0.03981602671198
C            2.58028186251803       -1.21425391179017        0.03006175752192
N            1.43813944744728       -1.93419254010258        0.00098261751768
C            0.39035684826767       -1.05887462812143       -0.00790371763344
C            0.93510047688824        0.21347817468824        0.01709077332874
C            0.09450143016486        1.40504290868848       -0.00410946993748
O            0.49712746915594        2.54126690785742       -0.00342325656480
N           -1.25076628431515        1.06271869620815       -0.03085477937476
C           -2.21907191394203        2.15522079838987       -0.05001256521996
C           -1.81739470187490       -0.20012724136556       -0.04692818139228
O           -2.99983858926755       -0.37846413507442       -0.07008877579474
N           -0.92618577614240       -1.30210203518959       -0.03682761236648
C           -1.46982251276835       -2.64643077634382       -0.06029819901142
H            3.71247229913541        1.21471443890471        1.06488839270555
H            4.00791460421487        1.03430799217987       -0.67357688121503
H            2.69909982127087        2.09770098766290       -0.09130154035862
H            3.56654087521359       -1.63682977417947        0.04233139674524
H           -1.67107945562430        3.09322822573871       -0.02552706696334
H           -2.82428927394145        2.09428605349656       -0.95318074103337
H           -2.87644002486466        2.07745706351925        0.81450059976605
H           -1.17061985538665       -3.19584861009707        0.83242224714061
H           -1.14560246782873       -3.17511580834413       -0.95688266944647
H           -2.55549768731684       -2.55659960601237       -0.07459039105944
H            1.38130842369251       -2.94313824728853       -0.01389874052104
25
 energy: -6.033170326542 xtb: 6.6.1 (8d0f1dd)
C            3.24009015547608        1.17236325452240        0.08631773721539
N            2.30454892786040        0.09425158759370        0.03437020461988
C            2.59417428124120       -1.25608841388028        0.03202929147060
N            1.40995890635015       -1.96566337542547        0.00061688649877
C            0.40139350438310       -1.06678996482700       -0.00847053914514
C            0.92030226753129        0.22177458379548        0.01444469491269
C            0.11651210246272        1.38732086730995       -0.00489848443657
O            0.49367100349230        2.56203983979673       -0.00402708489341
N           -1.26837838064913        1.05438488182215       -0.03126831575848
C           -2.22273949058803        2.15163607232952       -0.04973362749557
C           -1.81549851561509       -0.19252300680196       -0.04736852311605
O           -3.01423815540854       -0.38203053682144       -0.07045652928762
N           -0.93740506298126       -1.29532457652705       -0.03725558920944
C           -1.46469589977942       -2.63874357646265       -0.06022749814498
H            3.71965815651806        1.22305891678173        1.06781792069721
H            4.01131929171331        1.04292032341470       -0.67517435243075
H            2.70110884593740        2.10318461210675       -0.08915662244373
H            3.57330392664482       -1.66176610177786        0.04356361944009
H           -1.66814668628299        3.08764634997960       -0.02550829713683
H           -2.82877223159797        2.09587748990170       -0.95364916023609
H           -2.88038344943169        2.07909605700586        0.81590950646431
H           -1.15651283538817       -3.18863218248996        0.83225448429862
H           -1.13154902864593       -3.16839823452481       -0.95610387923879
H           -2.54959117263073       -2.55566835745017       -0.07466147016339
H            1.32315884022466       -2.98608288943954       -0.01489883298605
25
 energy: -4.786252595961 xtb: 6.6.1 (8d0f1dd)
C            3.23945363634806        1.17196470954365        0.08656408441893
N            2.30613541525649        0.08600198075172        0.03064707409370
C            2.58782914491797       -1.27403840775694        0.03073715535027
N            1.39728177160264       -1.99288129152045        0.00040391823711
C            0.40312683024323       -1.07271394596262       -0.00970782737258
C            0.92124405212642        0.21651790242026        0.01130189157673
C            0.11772701122832        1.38599994645077       -0.00579335565199
O            0.49188958309942        2.56253553551740       -0.00425334680386
N           -1.26935780136448        1.05656551876383       -0.03172589786091
C           -2.22507945985911        2.15276505124481       -0.04958827425880
C           -1.81667244829950       -0.18989223461890       -0.04800147269194
O           -3.01569193931340       -0.38064887120357       -0.07080254160301
N           -0.93728956126350       -1.29029008597870       -0.03773647472173
C           -1.45806718993905       -2.63526757259602       -0.06011198419848
H            3.72089900159760        1.22632176463070        1.06746498029664
H            4.01170029308187        1.04948600230245       -0.67528788790771
H            2.70113879314992        2.10526174101555       -0.08658399525978
H            3.57072766437106       -1.67004783265073        0.04800729468550
H           -1.67057672079503        3.08859517508189       -0.02541853012475
H           -2.83172459796874        2.09718616067344       -0.95330328424369
H           -2.88270829223880        2.08012962588039        0.81628627110758
H           -1.14377942364481       -3.18135422103515        0.83270699347230
H           -1.11903196613214       -3.16164861629919       -0.95583901309630
H           -2.54265100356041       -2.55773981338285       -0.07452001413127
H            1.26814938967758       -3.02896750883742       -0.01428941277391
25
 energy: -2.285901598548 xtb: 6.6.1 (8d0f1dd)
C            3.23903112311758        1.17299557452298        0.08671952084055
N            2.30736358915992        0.08047805918737        0.03000910926556
C            2.58198090376420       -1.28910302756068        0.03053417373413
N            1.38526597003561       -2.01861465949231        0.00005826229936
C            0.40529645219472       -1.07779637174071       -0.00991638476576
C            0.92338166860571        0.21355518767022        0.01137142429114
C            0.11926256287187        1.38697181645230       -0.00450441653158
O            0.49230127717069        2.56400185430734       -0.00238952014621
N           -1.26943042070575        1.06027815974299       -0.03136347509736
C           -2.22754924953143        2.15475998888480       -0.05006882918873
C           -1.81666351808657       -0.18636889978298       -0.04812551946761
O           -3.01586826197215       -0.37795505529048       -0.07179981877526
N           -0.93664376182906       -1.28498671220692       -0.03757184462149
C           -1.45207652532741       -2.63179224359714       -0.05997070454961
H            3.72331185936073        1.23016904120496        1.06638633539998
H            4.01058813359940        1.05688098889667       -0.67718694091849
H            2.69962731935133        2.10778006813306       -0.08294671442425
H            3.57314283119640       -1.66419154122180        0.04802078902555
H           -1.67605703154939        3.09221165526674       -0.02570041557487
H           -2.83389182076577        2.09796266244067       -0.95401224243561
H           -2.88629230453015        2.08112870751615        0.81500416220643
H           -1.13301228318738       -3.17553034910296        0.83279001925502
H           -1.10799564246599       -3.15568594432816       -0.95541278699757
H           -2.53636719245423       -2.55947637769035       -0.07459397619094
H            1.21747748141340       -3.07470138182617       -0.01448187392000
25
 energy: 1.601032355060 xtb: 6.6.1 (8d0f1dd)
C            3.23951653844969        1.17562982230194        0.08727583650335
N            2.30884707151366        0.07680375634083        0.03058813968893
C            2.57630205445325       -1.30269522519608        0.03248203817310
N            1.37524529098855       -2.04512295788076       -0.00080664172817
C            0.40847959519720       -1.08283405609127       -0.00984149414119
C            0.92562652284956        0.21144105931638        0.01131032147231
C            0.12039409843994        1.38922752649260       -0.00433360442305
O            0.49292135067071        2.56610139978774       -0.00218181978400
N           -1.26911411402082        1.06480904875878       -0.03153408737831
C           -2.23058035972599        2.15688986796199       -0.05007508628472
C           -1.81525803894896       -0.18250705361993       -0.04856058116410
O           -3.01457149110871       -0.37423276509805       -0.07381731336935
N           -0.93520666286681       -1.27983612529009       -0.03740931135677
C           -1.44614079106397       -2.62861334992098       -0.05948169502342
H            3.72664222160263        1.23664408348569        1.06557525167921
H            4.01066289955879        1.06489540982674       -0.67812369915117
H            2.70083947153275        2.11268976490061       -0.07870143419304
H            3.57463928260765       -1.65921850317465        0.04847745518821
H           -1.68439969626062        3.09735763748233       -0.02589173141138
H           -2.83768366268473        2.09779621344418       -0.95337278707616
H           -2.88944374991692        2.08083867384828        0.81473035418773
H           -1.12393253456257       -3.17122010625145        0.83311640244583
H           -1.09793751961601       -3.15172862219995       -0.95401869110323
H           -2.52991782647430       -2.56041363661191       -0.07472615369920
H            1.19332251911705       -3.13120345622088       -0.01911664019282
25
 energy: 23.600592568733 xtb: 6.6.1 (8d0f1dd)
C            3.24431378226544        1.19356276269913        0.08526888204524
N            2.30637355869671        0.09564517944337        0.03297386197663
C            2.54797874694660       -1.24540648945072        0.03788741105853
N            1.41742393769701       -1.95279041723998        0.01520725107382
C            0.41768509535082       -1.04959064753628       -0.01066540486185
C            0.93426270475300        0.24418796274883        0.00998397511014
C            0.10500811950744        1.41557102895093       -0.00654596480755
O            0.47586966613523        2.57852749325048       -0.00578595341599
N           -1.26100758520144        1.07707589551036       -0.03271473742679
C           -2.23164299860980        2.16199259465973       -0.04706102503625
C           -1.80746803861059       -0.19255735213031       -0.05052694127724
O           -3.00524890207385       -0.36991886835129       -0.07696509889047
N           -0.92424403009541       -1.26770687650529       -0.03941602583002
C           -1.43544946786316       -2.62246719977744       -0.06278576340664
H            3.72746569220419        1.24281563087080        1.06341286680708
H            4.00999776776109        1.06686848390389       -0.67932759362390
H            2.70710407499386        2.12963122369684       -0.07853456467689
H            3.55293802034104       -1.62685535853021        0.05026135738928
H           -1.68469836831129        3.10144171180928       -0.02257456878896
H           -2.84128745180376        2.10380511059412       -0.94843957501033
H           -2.88707391376251        2.08338913912897        0.81988288999803
H           -1.10108003449877       -3.16200355971429        0.82485155561272
H           -1.07581041292645       -3.14064753004318       -0.95392673276252
H           -2.51932264314895       -2.56309220255376       -0.07748591709382
H            1.10529648592464       -3.57970105091199       -0.02448428082828
25
 energy: 20.827826969509 xtb: 6.6.1 (8d0f1dd)
C            3.24509736119552        1.20032546135300        0.08681073804949
N            2.30754166841324        0.09950860032129        0.03569128766460
C            2.54252879201231       -1.23974034566166        0.03886757674096
N            1.42038993896389       -1.95764600880977        0.00571863434068
C            0.42276520046597       -1.04632888573322       -0.00909603013100
C            0.93738163063564        0.24738054107946        0.01080574186089
C            0.10236486263922        1.42073765013044       -0.00419058014721
O            0.47410130618947        2.57968823947358        0.00154294425143
N           -1.25793434060574        1.08319267461558       -0.03188779043070
C           -2.23381494858987        2.16425036302692       -0.05005016147662
C           -1.80401675121283       -0.19181069321240       -0.04954200873873
O           -3.00134951081759       -0.36650303220571       -0.07558594231537
N           -0.92048362858593       -1.26155546394041       -0.03797563420515
C           -1.43085769240208       -2.61833950109360       -0.05927622374766
H            3.73054987439892        1.25023027168838        1.06348239677437
H            4.01013621782799        1.08127052026669       -0.68031080450381
H            2.70508655984776        2.13579660825730       -0.07391111033055
H            3.55231748267402       -1.61545091368079        0.04748153846076
H           -1.69267619872490        3.10709738924332       -0.02569668418699
H           -2.84103070472529        2.10127751503692       -0.95278163374090
H           -2.89248666266174        2.08374208881555        0.81435437714636
H           -1.09231106575906       -3.15512996951853        0.82818170099529
H           -1.06730303043361       -3.13624091889362       -0.94814918554799
H           -2.51459921382152       -2.56417693004358       -0.07421289005531
H            1.07962564390369       -3.69218097364919       -0.03619733114791
25
 energy: 19.476608947446 xtb: 6.6.1 (8d0f1dd)
C            3.24642603259875        1.20706988267101        0.08537115814552
N            2.30704586605703        0.10728505598789        0.03514347271261
C            2.54019898069197       -1.23120650848760        0.04232850982580
N            1.42165618498893       -1.95615832473681        0.01376188735748
C            0.42550593093740       -1.04100856032211       -0.00759113226926
C            0.93737073338447        0.25420266409930        0.01075678639737
C            0.10024238832574        1.42587837103276       -0.00243215217289
O            0.46811196399508        2.58534338288366        0.00578671294854
N           -1.25943610630803        1.08764359135825       -0.03139625805513
C           -2.23665179849206        2.16739142876348       -0.05077093575220
C           -1.80296508853987       -0.18802361938428       -0.04966549796102
O           -2.99954081646190       -0.36687799874370       -0.07500974619297
N           -0.91792255630740       -1.25551858012281       -0.03812925908244
C           -1.42288408979668       -2.61406543556159       -0.05912616895707
H            3.73265983314540        1.25548408109689        1.06171664532303
H            4.01083224346016        1.08886168321780       -0.68257544699990
H            2.70762561524742        2.14357699489540       -0.07488057457188
H            3.55189498201005       -1.60322079474878        0.05054165938399
H           -1.69660806925170        3.11097777568340       -0.02626823700036
H           -2.84264623638432        2.10300245469207       -0.95423457450464
H           -2.89710730324817        2.08656331090146        0.81232958528398
H           -1.07849405181819       -3.14800522461435        0.82787903816712
H           -1.05676913922360       -3.12965313082102       -0.94843860419110
H           -2.50688150430402       -2.56649003046763       -0.07241414854290
H            1.05987111538004       -3.78086937577361       -0.04276442542748
25
 energy: 18.715936998485 xtb: 6.6.1 (8d0f1dd)
C            3.24836448704500        1.21609086545125        0.08580981312763
N            2.30617141939803        0.11878817198773        0.03572768056420
C            2.53869553346197       -1.21899993281162        0.04419838230005
N            1.42349116642428       -1.94862549057654        0.01447909182601
C            0.42752310067675       -1.03266239801118       -0.00767935078959
C            0.93680421225634        0.26355923875355        0.01014135609373
C            0.09729537466420        1.43252649635648       -0.00318669766906
O            0.46047350178181        2.59295536907567        0.00533042162530
N           -1.26140647494381        1.09201972609304       -0.03179733629703
C           -2.23938060317447        2.17063264330863       -0.05101043086142
C           -1.80255483346134       -0.18448956088836       -0.04963055902588
O           -2.99828664141713       -0.36697141181909       -0.07472436661893
N           -0.91562648780981       -1.24932971732942       -0.03834280431146
C           -1.41460869392014       -2.61020246451522       -0.05849223158620
H            3.73655420444803        1.26194033740715        1.06127463884440
H            4.01171767805104        1.09661188846187       -0.68289177531778
H            2.71358015669478        2.15512129110287       -0.07351191638497
H            3.55140872563997       -1.58895493915334        0.04960008459285
H           -1.69962713195503        3.11457230806679       -0.02683673745852
H           -2.84571190898630        2.10521010646264       -0.95420129507868
H           -2.89964817154839        2.08910961361527        0.81221823503548
H           -1.06645591460767       -3.14171012362122        0.82866573280374
H           -1.04519201417707       -3.12370557920135       -0.94780311794943
H           -2.49892394155721       -2.56943711901108       -0.07149568922729
H            1.03658610128188       -3.88308695903224       -0.04403019029842
25
 energy: 18.461689667243 xtb: 6.6.1 (8d0f1dd)
C            3.24919322053592        1.22429339353004        0.08586609284982
N            2.30448918450339        0.12976248687657        0.03754321731814
C            2.53782691324536       -1.20637946511181        0.04409022573667
N            1.42702464142917       -1.93888477428125        0.01692153269748
C            0.42978705758690       -1.02359756698934       -0.00631453721244
C            0.93599588208948        0.27321507106198        0.01052398290215
C            0.09457488350423        1.43972729067138       -0.00440599567173
O            0.45366319310857        2.60110901508277        0.00366140656612
N           -1.26257955814266        1.09672838289559       -0.03264719725846
C           -2.24188473666479        2.17373085053325       -0.05041071470131
C           -1.80038872589757       -0.18126827892439       -0.05040982303647
O           -2.99580863277234       -0.36598923878765       -0.07579374693801
N           -0.91262964962594       -1.24320234053374       -0.03838505437822
C           -1.40550539157798       -2.60612737507399       -0.05886723312778
H            3.74088393565932        1.26651368972781        1.05962718138202
H            4.00974024690992        1.10363131960636       -0.68547454519342
H            2.71630194131824        2.16452878042163       -0.07172195319724
H            3.55125062502029       -1.57541608609383        0.04703679682791
H           -1.70271293064235        3.11811199104457       -0.02604414457178
H           -2.84911483655051        2.10766030203408       -0.95297463871967
H           -2.90119256975693        2.09042845614887        0.81344357208947
H           -1.05481416338186       -3.13437147984824        0.82934516152338
H           -1.03004900762266       -3.11638245654967       -0.94762267458909
H           -2.49032202651779       -2.57340239538233       -0.07411928626304
H            1.01338764507694       -3.99038261566483       -0.04306193129497
25
 energy: 18.563577079325 xtb: 6.6.1 (8d0f1dd)
C            3.24942600750321        1.23406431437472        0.08651356531765
N            2.30285397949979        0.14198379331699        0.03967516099080
C            2.53767662907035       -1.19229255194635        0.04419224515858
N            1.43114171404959       -1.92722163346281        0.01554883513929
C            0.43208270224555       -1.01365112091948       -0.00610408109827
C            0.93518485742300        0.28353806513857        0.01106469023491
C            0.09222798801766        1.44771979753180       -0.00463629912423
O            0.44905723307281        2.60979747931788        0.00379013477113
N           -1.26339064421885        1.10170243006409       -0.03293674440333
C           -2.24402798663279        2.17704458397549       -0.05102537016783
C           -1.79823642827875       -0.17821919234998       -0.04999101084445
O           -2.99363281309058       -0.36434554868410       -0.07507481634036
N           -0.90961462526154       -1.23711006145468       -0.03805206615412
C           -1.39678508739977       -2.60212663074406       -0.05767624200022
H            3.74289995350918        1.27479813474190        1.05939622685498
H            4.00871226812177        1.11274354313153       -0.68619474591996
H            2.71857277932955        2.17498243030628       -0.07063493691040
H            3.55133407375754       -1.56031334570394        0.04728575462023
H           -1.70644044850540        3.12213590031984       -0.02686966561560
H           -2.85108444452278        2.10985907838151       -0.95355657207481
H           -2.90327941778675        2.09327076401880        0.81276834638276
H           -1.04232715025004       -3.12687903221442        0.83121103640486
H           -1.01709624336443       -3.10991201215592       -0.94612590409857
H           -2.48214411536215       -2.57684999031954       -0.07331000831127
H            0.98881160822159       -4.11188209500516       -0.04908073903245
25
 energy: 18.789584650236 xtb: 6.6.1 (8d0f1dd)
C            3.25179784475233        1.24300521628895        0.08612227682065
N            2.30281150562859        0.15487897354592        0.04010816591608
C            2.53772156705254       -1.17763731324933        0.04198772475550
N            1.43496010288418       -1.91417896772800        0.01378887559312
C            0.43417882453607       -1.00262915257806       -0.00579364760732
C            0.93507944621626        0.29459479060438        0.01183411293681
C            0.09063484574488        1.45662346026710       -0.00452828641539
O            0.44786142079251        2.61883958425077        0.00397251486046
N           -1.26404251211095        1.10750887535260       -0.03309789613927
C           -2.24696419630499        2.18037912157485       -0.05153525544341
C           -1.79669914917965       -0.17452539720691       -0.04962630374311
O           -2.99226218058615       -0.36089357408528       -0.07444173073285
N           -0.90707007558447       -1.22997098773969       -0.03769237731497
C           -1.39005467221704       -2.59658819053730       -0.05703367467809
H            3.74700299090709        1.28230420603531        1.05832254282864
H            4.01023857683867        1.12024567888495       -0.68759138621155
H            2.72227232284645        2.18363675733967       -0.07197593796435
H            3.55076679986136       -1.54539916094377        0.04785359514650
H           -1.71205820767864        3.12677017642221       -0.02755219383760
H           -2.85381772332803        2.11190234395049       -0.95398068222544
H           -2.90598021459465        2.09584815433451        0.81222995698198
H           -1.03308184042053       -3.11763014080573        0.83273066171920
H           -1.00676759575974       -3.10186275427770       -0.94515909067711
H           -2.47498093450764       -2.57947075548371       -0.07327127847497
H            0.96975968374546       -4.22913624562945       -0.05199999412599
25
 energy: 19.044799206700 xtb: 6.6.1 (8d0f1dd)
C            3.25404426450673        1.25275675654246        0.08564118320492
N            2.30322747513816        0.16811872708363        0.03961759758779
C            2.53849059394854       -1.16266521320890        0.03822940275141
N            1.43954350953929       -1.90012233135342        0.01170193120577
C            0.43660334324010       -0.99132336068735       -0.00590021738646
C            0.93535234262146        0.30584921040816        0.01219849585469
C            0.08899768139252        1.46568305187036       -0.00451087967386
O            0.44624656439156        2.62832419138032        0.00417116519609
N           -1.26422129404734        1.11335256770904       -0.03334205202792
C           -2.24951452959683        2.18364745923151       -0.05156305610635
C           -1.79490072575436       -0.17123296848268       -0.04949561497031
O           -2.99064319502298       -0.35729611685197       -0.07407854443639
N           -0.90379727122250       -1.22257071011254       -0.03736226960526
C           -1.38398622819580       -2.58962985380152       -0.05691958407161
H            3.74793005678923        1.29037964242343        1.05853790366955
H            4.01210072535656        1.12818715935267       -0.68811366990780
H            2.72596377255817        2.19328935138038       -0.07430279551039
H            3.54908395240163       -1.53521737052857        0.04676295465048
H           -1.71676100400640        3.13103720250933       -0.02760944209312
H           -2.85628410224550        2.11405642953999       -0.95398299825618
H           -2.90837962311315        2.09766949982802        0.81230024897663
H           -1.02665093785528       -3.10720475757225        0.83348904838717
H           -0.99988138393681       -3.09201757993548       -0.94518326285636
H           -2.46825605216638       -2.57824738544149       -0.07322624419727
H            0.95224932799554       -4.35426551244043       -0.05109950178713
25
 energy: 19.245814713216 xtb: 6.6.1 (8d0f1dd)
C            3.25657501638185        1.26218679197653        0.08579517771694
N            2.30399197932990        0.18104569708177        0.03946935812796
C            2.53986719756949       -1.14787766259296        0.03683717336489
N            1.44435773445101       -1.88563330237706        0.01042876545612
C            0.43901615132274       -0.98025526796379       -0.00579243787348
C            0.93574444940428        0.31694224342664        0.01286542025122
C            0.08716876917179        1.47438908444852       -0.00399930776410
O            0.44371560527302        2.63769467886575        0.00424718079756
N           -1.26428861506747        1.11808680510241       -0.03350903693922
C           -2.25223052272203        2.18629559549181       -0.05187422690016
C           -1.79265027870152       -0.16873294891153       -0.04921521690304
O           -2.98871334682731       -0.35446699955610       -0.07389923447395
N           -0.89989725971706       -1.21699515695324       -0.03667711339125
C           -1.37815433662791       -2.58349846730720       -0.05649068097868
H            3.74788530554330        1.29674840062197        1.06006386436696
H            4.01371486548729        1.13498761500765       -0.68779526463079
H            2.73044857909263        2.20302983516400       -0.07607600870564
H            3.54434658912339       -1.53218367567539        0.04791575339370
H           -1.72161425284747        3.13482107828554       -0.02774994926873
H           -2.85926109830517        2.11498499983960       -0.95424042753687
H           -2.91140968041124        2.09778928704795        0.81174210804797
H           -1.01733338721057       -3.09833851361527        0.83305594229060
H           -0.99080268374536       -3.08350612951868       -0.94374769278176
H           -2.46298934043674       -2.57272489824535       -0.07263833208520
H            0.93161651998271       -4.47949350421214       -0.05147820587235
25
 energy: 19.416186305592 xtb: 6.6.1 (8d0f1dd)
C            3.25944218032032        1.27174637341047        0.08614768455892
N            2.30512613087147        0.19391372521222        0.04007558178048
C            2.54276135883279       -1.13271017988162        0.03669279411238
N            1.45092748969050       -1.87127514478779        0.00946696966987
C            0.44206289139951       -0.97032326635530       -0.00582501552539
C            0.93654083053698        0.32714402551043        0.01366209859210
C            0.08586121632272        1.48194149112127       -0.00343319465285
O            0.44053249798398        2.64625364795094        0.00387122864592
N           -1.26273779443329        1.12043158221430       -0.03361511760936
C           -2.25275983169741        2.18682086814040       -0.05197128251769
C           -1.78944550313829       -0.16736360358543       -0.04879064207064
O           -2.98600806626102       -0.35220899113830       -0.07352527615871
N           -0.89504701859512       -1.21371500525585       -0.03575295807778
C           -1.37289014279617       -2.57879291631084       -0.05601447055475
H            3.74971678053052        1.30539934618204        1.06101172072950
H            4.01658934149279        1.13544256472498       -0.68593830478190
H            2.73546301918141        2.21332087281056       -0.07710261857767
H            3.53920985734409       -1.53000437197052        0.05174415724350
H           -1.72521944616373        3.13757838456350       -0.02784769251564
H           -2.86034464395103        2.11403410685357       -0.95394045878132
H           -2.91091032995824        2.09538171223389        0.81188001600098
H           -1.00819757120067       -3.09275396691528        0.83178145700395
H           -0.98204406476595       -3.07730393266363       -0.94183527233624
H           -2.45914530300677       -2.56601177603829       -0.07234912149336
H            0.90935696207485       -4.60550221069890       -0.05154848928616
25
 energy: 19.551643525332 xtb: 6.6.1 (8d0f1dd)
C            3.26194167155776        1.28245540766403        0.08717992638720
N            2.30690768729372        0.20625052322487        0.04007050915188
C            2.54863546284942       -1.11821916836635        0.03568184032558
N            1.45934042026802       -1.85744355082313        0.00824912861251
C            0.44550945568776       -0.96222091566317       -0.00585688978535
C            0.93768860916545        0.33604099941608        0.01444029710470
C            0.08564074981994        1.48870730414847       -0.00337333702468
O            0.43852748384924        2.65397325787547        0.00305559817271
N           -1.26012455268442        1.12121375760908       -0.03306827973586
C           -2.25364427825449        2.18452887365154       -0.05152131405706
C           -1.78539322084023       -0.16697219362600       -0.04858648774044
O           -2.98238558093451       -0.35016088293283       -0.07291402521198
N           -0.89017998513571       -1.21534696310936       -0.03570473817612
C           -1.36848910261713       -2.58088229326022       -0.05639682792696
H            3.75089710393262        1.31455108363221        1.06302261906685
H            4.02101942519453        1.14388985791336       -0.68331901024539
H            2.73901269627648        2.22440237147571       -0.07686717938977
H            3.54252436338013       -1.51973614282277        0.05033353572092
H           -1.72987259455605        3.13754737995009       -0.02753871425851
H           -2.86032562731238        2.11023584559791       -0.95368195037932
H           -2.91132281820901        2.09155567360192        0.81230431893989
H           -1.00803986420741       -3.10197103251315        0.82993363008866
H           -0.98325865818495       -3.08543397277164       -0.94211724843086
H           -2.45607834180664       -2.55923081085188       -0.07221993855209
H            0.88183547501163       -4.72996846870388       -0.05144046545439
25
 energy: 19.660288543117 xtb: 6.6.1 (8d0f1dd)
C            3.26387538938348        1.28536048661254        0.08701596699675
N            2.30598570014843        0.21396398956540        0.04091926959263
C            2.55002634560515       -1.10969624393363        0.03475690602608
N            1.45994253606316       -1.84638098688885        0.00565833270184
C            0.44508585021650       -0.95524299274470       -0.00556699616028
C            0.93738470764899        0.34411901923823        0.01689226571123
C            0.08355910208129        1.49469415521221       -0.00242437905590
O            0.43462975131333        2.66048327538940        0.00187728370175
N           -1.26181636310384        1.12250361056694       -0.03177505307753
C           -2.25618116064815        2.18539043000901       -0.05137452238792
C           -1.78477216865062       -0.16570697556947       -0.04836906734974
O           -2.98101706809009       -0.35271236555666       -0.07349283616452
N           -0.88796761753581       -1.21585465824752       -0.03608757182316
C           -1.36667849206073       -2.58113803459767       -0.05706594380755
H            3.75244772166452        1.31594203553290        1.06304371179316
H            4.02319581707950        1.14190189551509       -0.68230299504507
H            2.74454066132560        2.22835630015658       -0.07903802877235
H            3.53924035077268       -1.52244708286055        0.04951141834695
H           -1.73026922627192        3.13728264223696       -0.02728311223430
H           -2.86259823107139        2.11002035984549       -0.95375002692701
H           -2.91439375129429        2.09275657090274        0.81216309409839
H           -1.01305575675828       -3.10903042580325        0.82865480644017
H           -0.98820263383470       -3.09121630577488       -0.94312616394651
H           -2.45446487759330       -2.55580822179876       -0.07242774906845
H            0.87371771858293       -4.83851168826352       -0.04937469739405
