25
 energy: -42.175325890131 gnorm: 0.008135409127 xtb: 6.6.1 (8d0f1dd)
C            3.27188042678097        1.14691093260123       -0.00531763977201
N            2.41630305196144        0.15229212372293        0.00952702599638
C            2.57193024782885       -1.09052471286648        0.51594785456529
N            1.41287639816385       -1.80252737997183        0.38952990415659
C            0.47752527626933       -1.07283047685635       -0.23026570149127
C            1.07205377439533        0.24626254947846       -0.54622757622619
C            0.17475184246921        1.34536869720383        0.10758083966285
O            0.63650328007105        2.32372684637839        0.62155464429303
N           -1.15274585593699        1.06013330530854       -0.02624937826690
C           -2.11392292660069        2.12686553595698        0.25156579543544
C           -1.72345001493634       -0.17416869423969       -0.34819004568320
O           -2.89418280831739       -0.31112312921920       -0.56101207601791
N           -0.85002154737044       -1.27748162844574       -0.31126516687661
C           -1.42406049812129       -2.60956074586447       -0.23263876957093
H            4.23637331106234        1.01639867707886        0.44919043120072
H            1.09257385786014        0.51105777184043       -1.61205642726966
H            2.98957586018391        2.09038344428098       -0.42732943751953
H            3.46901425797947       -1.46779034323372        0.95676245257817
H           -1.57841200385539        3.07085539081805        0.29904345786626
H           -2.85529858343106        2.14607873143646       -0.54571344328243
H           -2.62013856122583        1.94308831751361        1.19837734020223
H           -1.38301900354169       -2.99137552511754        0.78898466456858
H           -0.89741338922044       -3.28322908394359       -0.90639888872289
H           -2.46732887916362       -2.53475547509054       -0.53670507242625
H            1.29906400079459       -2.74581658717076        0.73247683049951
