25
 energy: 39.097721172940 xtb: 6.6.1 (8d0f1dd)
C            3.45865826795178        1.56390817317946        0.08972958323997
N            2.62841104850304        0.39046736456595        0.06020017732868
C            3.03666070289826       -0.87392573092256        0.04943244198198
N            1.96771219838259       -1.70162670122179        0.01638746048726
C            0.81861021547246       -0.93408403982782        0.00445027469361
C            1.25835451396827        0.39877884789287        0.03496967108191
C            0.30718539924204        1.49390866253756        0.00662001187341
O            0.61161300519532        2.68205136088763        0.00701480352442
N           -0.97231412298090        1.00255785264524       -0.02800883440510
C           -2.07397271739504        1.95072172115510       -0.05234209252795
C           -1.36679729761841       -0.40093876510921       -0.04124725432294
O           -2.55806406280259       -0.60056274553113       -0.06382069543834
N           -0.41661765318879       -1.36323176194585       -0.03087059463242
C           -3.23576546666825       -3.47664766037802       -0.10790273258130
H            3.95591097522357        1.64466009284695        1.05544833638514
H            4.20758999886156        1.51036352033354       -0.69879364490841
H            2.81584299612080        2.43151116453916       -0.05954685128102
H            4.05767236695638       -1.19729205752054        0.06711030582471
H           -1.65511102593892        2.95418560603446       -0.02895507234276
H           -2.67053568666040        1.80823887590900       -0.95424120595314
H           -2.72217374319595        1.78617713137911        0.80889759969515
H           -2.97962897603167       -3.95220400342798        0.81358455016291
H           -2.94856020694882       -3.91725222889124       -1.03742899569453
H           -3.72871137672168       -2.53202317221128       -0.09873617970176
H            2.00060295417788       -2.70988235488842        0.00677997601345
