25
 energy: 32.195116287460 xtb: 6.6.1 (8d0f1dd)
C            3.26647622694674        1.36018439414300        0.09756564228788
N            2.42231202785322        0.19609729166777        0.03834001321246
C            2.79440467104993       -1.13490584664125        0.05241493568107
N            1.66259428967305       -1.91621260146131        0.02122900718058
C            0.53418837706535       -1.16705614713507       -0.00579462180629
C            1.02045551083677        0.17991179887965        0.01766903458459
C            0.21312049996603        1.31958877120142       -0.01232290555662
O            0.55577458830337        2.50946812465113       -0.00950406299637
N           -1.15605634499387        0.94026179894561       -0.03701635493618
C           -2.13046547820572        2.03341202825724       -0.05077285599774
C           -1.66810818455338       -0.32300193520130       -0.04937964377823
O           -2.88738566876283       -0.39466511608959       -0.06884040082674
N           -0.87085052979588       -1.50142523566879       -0.04420058265790
C           -2.01404433953819       -2.74112624430351       -0.07653832972434
H            3.81072187753830        1.40659539346012        1.04733744200856
H            4.00996577808374        1.34687251630855       -0.70748891449334
H            2.65091571134941        2.26057279516304        0.01058137650973
H            3.79697118826285       -1.49452277738022        0.05606532021196
H           -1.55427912253473        2.95714051338334       -0.02912189594320
H           -2.73518974495213        1.98482514004460       -0.95372585914483
H           -2.77475441908644        1.97092770253962        0.82259052809966
H           -1.95004788010124       -3.36261888215499        0.80734030340148
H           -1.92469550845803       -3.34790594970158       -0.96844360986652
H           -2.94538480702436       -2.16829958361051       -0.08627684576590
H            1.70505897984668       -2.92165440787195        0.01807128821538
