25
 energy: 44.533237887977 xtb: 6.6.1 (8d0f1dd)
C            3.37035074986691        1.45559758892282        0.08733820036952
N            2.52182196179381        0.29060854985696        0.08882403216287
C            2.90558638666014       -0.99127261759725        0.06637413946667
N            1.82369800878478       -1.81729378250491        0.01597915962366
C            0.68748447572522       -1.03680170696263        0.00190854574951
C            1.15596711257230        0.29057083750249        0.04326269827578
C            0.24221307282660        1.40563441698516        0.01691042834994
O            0.58997521252333        2.58246137725381        0.02129328672518
N           -1.05120654395664        0.96222040659401       -0.02955420308145
C           -2.09496812351222        1.97838005765541       -0.05195676589167
C           -1.49671603245530       -0.39363313370492       -0.04269131610124
O           -2.70338740980575       -0.49373400067530       -0.06297141183348
N           -0.58080293121977       -1.39752760964865       -0.03578579475917
C           -2.71601575067337       -3.15092566320207       -0.09675865736623
H            3.89128662749727        1.53616304734066        1.04055430824687
H            4.10743444174237        1.39186434773525       -0.71173172476101
H            2.77308948206524        2.35813871973196       -0.06311702439853
H            3.91633338507059       -1.33540003559713        0.05995712460496
H           -1.57257221920868        2.93194709181709       -0.03490703920922
H           -2.70699270789885        1.88737345966348       -0.95054294705510
H           -2.74603519218313        1.86812758939969        0.81630622585983
H           -2.43601467405670       -3.59367439562554        0.81347091078132
H           -2.41204039242534       -3.55504089145146       -1.01771100788802
H           -3.34412873644403       -2.30104604873276       -0.08669088011266
H            1.88229315142761       -2.83182695026018        0.01181593648653
