25
 energy: 47.301407211504 xtb: 6.6.1 (8d0f1dd)
C            3.31031157826642        1.41197545738599        0.09056548527689
N            2.47253378696008        0.23893155400419        0.06684932918748
C            2.84716027894146       -1.05222584208207        0.06172282471497
N            1.74954493684374       -1.86725748213185        0.02100955099482
C            0.61604011774096       -1.08478792109463       -0.00073512152049
C            1.10186511962981        0.23983518882589        0.03344243776835
C            0.21997759728000        1.36296304216578        0.01056956780573
O            0.57302817670641        2.53903441961162        0.02288705369587
N           -1.09299340724960        0.95460696878587       -0.03367612903380
C           -2.09932622571750        2.01098283640943       -0.05192122277053
C           -1.56444547211128       -0.37361383672577       -0.04488623306506
O           -2.77656141006434       -0.44422261750547       -0.06385210486142
N           -0.67415197439311       -1.42028048754144       -0.03743187770238
C           -2.47015276025435       -3.01864810528526       -0.08982954582310
H            3.85662129937790        1.46507969223104        1.03215508608946
H            4.01660141327204        1.41463323297168       -0.73476605897827
H            2.70209151662141        2.31265273815537       -0.01607175713125
H            3.85771803190963       -1.39738795277319        0.06318097890039
H           -1.52768356051097        2.93744708887459       -0.03421690122645
H           -2.71079755472969        1.93851885640494       -0.95131482760319
H           -2.74920116093600        1.92510232440006        0.81860160104891
H           -2.19252374208084       -3.46166377907232        0.82286295640520
H           -2.16509041622925       -3.43153666907108       -1.00787967519485
H           -3.16813276753274       -2.22645554166326       -0.08585851473875
H            1.80597991220429       -2.87873889446503        0.02080378162743
