25
 energy: 4.766750943639 xtb: 6.6.1 (8d0f1dd)
C            3.26097404664851        1.27404669823618        0.09368712496304
N            2.37052984730923        0.14566106171358        0.02264506920055
C            2.71519627346683       -1.19727095576341        0.03851150167192
N            1.55809663488106       -1.93729345095656        0.01274725104390
C            0.46616875676944       -1.14556291369422       -0.00987651656199
C            0.96896996793605        0.17730229954595        0.00188504250176
C            0.16086692993506        1.32891117094499       -0.01348526553068
O            0.50030503705545        2.51673197720759       -0.01600909530547
N           -1.21912508617746        0.97113010332133       -0.03377406809749
C           -2.18081738072431        2.07218096271218       -0.05017269626475
C           -1.73862359974521       -0.28134399190783       -0.04893573573733
O           -2.94849945274400       -0.41638575812381       -0.07167351474981
N           -0.90819275974301       -1.44346635979610       -0.03895963232076
C           -1.76608146576599       -2.68099956818280       -0.06745861524645
H            3.77444663708942        1.31606886865843        1.06174084900721
H            4.02649466419669        1.20979925953359       -0.68811530369062
H            2.68073760705826        2.19784497502154       -0.02681339580429
H            3.70728411366761       -1.58850289220244        0.05088060252417
H           -1.61386396871486        3.00322832809610       -0.02664786096392
H           -2.78603401702540        2.02122250716286       -0.95414970486825
H           -2.83220856392997        2.00492308910785        0.81917479137581
H           -1.61196077171343       -3.30186803786997        0.81739948651502
H           -1.58388059660375       -3.28029811928778       -0.96146744211960
H           -2.78377900564381       -2.31101484920393       -0.07983229493892
H            1.55706566376470       -2.94049965782975        0.00638021564045
