25
 energy: 22.952813116984 xtb: 6.6.1 (8d0f1dd)
C            3.26022254579833        1.33967222267250        0.09725113350002
N            2.41099804197499        0.17819373258199        0.02726430105338
C            2.77379501694473       -1.15398811245555        0.04853014163711
N            1.63654132135200       -1.92502864991837        0.01998157677969
C            0.51089904620052       -1.17321616998080       -0.00712230413952
C            1.00542315746912        0.17202796559529        0.01188375599379
C            0.20597551977030        1.31783818612799       -0.01492849636265
O            0.54726842417189        2.50730981937208       -0.01327848737180
N           -1.16767826210579        0.94597976719330       -0.03624588008953
C           -2.13997412511235        2.04125205011490       -0.05027252183299
C           -1.68379491667839       -0.31047495819751       -0.04968290489327
O           -2.90221008287860       -0.38754228685925       -0.06977067442750
N           -0.89023200671461       -1.49991368491451       -0.04284646361902
C           -1.94540724910438       -2.71683826304946       -0.07504754618305
H            3.79997552810287        1.38554660335484        1.05090591890111
H            4.01208714703690        1.31886825200852       -0.70156610042538
H            2.64199820543259        2.24436936729540        0.01362797542429
H            3.77571691375121       -1.51837771129392        0.05542058756939
H           -1.57182145746397        2.97000296043582       -0.02862029616310
H           -2.74515473241166        1.99246767280756       -0.95298948001393
H           -2.78489218371469        1.97902097474582        0.82266432388137
H           -1.86845117855325       -3.34884359584826        0.80738840152165
H           -1.83584595020254       -3.32841015406939       -0.96603420556064
H           -2.90621424825803       -2.19816694643223       -0.08646646343878
H            1.67002300572447       -2.93001457918590        0.01643375845489
