25
 energy: 42.049488212989 xtb: 6.6.1 (8d0f1dd)
C            3.42483481786712        1.49725155885226        0.08094068163934
N            2.56766512830784        0.33546895459033        0.07426114721905
C            2.96156335293569       -0.93210964779412        0.05457504910804
N            1.89246222581847       -1.76391608150672        0.00963461728830
C            0.75316389248628       -0.98481396479783        0.00306460966473
C            1.20387320928411        0.34261518487519        0.04281705379341
C            0.26269444449214        1.45123320006945        0.01605543444110
O            0.59533051946596        2.63138025261170        0.01863261284043
N           -1.01764477592610        0.97773783579639       -0.02716491036349
C           -2.09504179087673        1.95655611966401       -0.05250481624655
C           -1.43259188247621       -0.40570278145611       -0.04136851547399
O           -2.63276076593701       -0.54435253863251       -0.06308915520105
N           -0.49263180302016       -1.37801346519076       -0.03327983513251
C           -2.93686728258917       -3.29595356305894       -0.10323486030427
H            3.91615909546477        1.60603560432510        1.04966369982242
H            4.19331954894261        1.38827681640913       -0.68730941064885
H            2.84147080006198        2.40304342852643       -0.10942908892374
H            3.97894456630801       -1.25671332409878        0.04947479249820
H           -1.60469516843167        2.92347140635723       -0.02392986475438
H           -2.69650932108152        1.85740085169307       -0.95728192298815
H           -2.75413774367456        1.83286458044636        0.80781513372938
H           -2.67078639524658       -3.74949968324085        0.80768967896146
H           -2.64636438806436       -3.70564604140953       -1.02850454889915
H           -3.49537849747160       -2.39862268910957       -0.09000708890874
H            1.96699310335781       -2.77493385727900        0.00033200848007
