25
 energy: 40.245459258272 xtb: 6.6.1 (8d0f1dd)
C            3.43741796285940        1.52507431796363        0.08351514701341
N            2.59585788510267        0.36456516711026        0.05763984344008
C            2.99420100423957       -0.89635975387643        0.04373205731530
N            1.93219289041155       -1.72921166410389        0.00982374021522
C            0.79701473660880       -0.94791747418028        0.00428692194339
C            1.23271726704151        0.37987754015712        0.03870157398118
C            0.28277645619656        1.48058964830953        0.01091836777557
O            0.59857636484303        2.66578608135337        0.01122799736048
N           -0.99418723986770        0.99543330899377       -0.02736108912606
C           -2.09117664821757        1.94880656211580       -0.05299076881530
C           -1.39090313774844       -0.40296518488513       -0.04110578586103
O           -2.58622507485834       -0.57402979608868       -0.06395769410776
N           -0.43687960975646       -1.35605182198438       -0.03021803191163
C           -3.07999350309858       -3.39111453506805       -0.10566122605713
H            3.91550870087310        1.61208979451799        1.05639551060902
H            4.20022569665260        1.44265112233008       -0.68794102711901
H            2.81773058729110        2.40251066007902       -0.09161510978113
H            4.01084341943799       -1.21059236005594        0.05918607148647
H           -1.64016861378143        2.93613067606207       -0.02288005942526
H           -2.68824026856529        1.82665472415690       -0.95821946987186
H           -2.74895318159070        1.79946692944674        0.80450800424747
H           -2.80711067408273       -3.85912153140952        0.80968197992683
H           -2.78068982961275       -3.81768130750837       -1.03320159549421
H           -3.60641408991150       -2.46726975349837       -0.09344881440535
H            1.98577920538768       -2.73894425793998        0.00218339746452
