  72
        -99.35957811
 N         -2.0349026306        2.6988674890        2.3721772065
 C         -1.8841909641        2.0533806573        1.3143030890
 C         -2.9221744800        1.9226994320        0.2344341966
 C         -3.3433011532        0.4696307207        0.1088365900
 C         -4.0104048965        0.0158691026       -1.0272550594
 C         -4.4307185586       -1.2889387314       -1.1283746686
 O         -6.7854566546       -0.1817044652        0.1380779546
 C         -7.8079448972       -0.2234838391       -0.4841665136
 C         -4.2240429697       -2.1940939239       -0.0832351573
 O         -4.6910274686       -3.4448971491       -0.2813046472
 C         -4.6031042209       -4.3835488921        0.7668860103
 C         -3.5642475346       -1.7503065652        1.0580870340
 C         -3.1332897870       -0.4368947519        1.1411317691
 C         -2.2300443174        2.4137894437       -1.0632307634
 C         -1.2321767295        1.4186831580       -1.6834475223
 C          0.0238936693        1.2563143650       -0.9206699286
 N          0.5916190315        0.0979898892       -0.6127492770
 C          1.9666537479        0.0514623094       -0.1738767793
 C          2.9067393039       -0.3224480321       -1.3372924521
 C          4.3420366935       -0.2261013654       -0.9033843443
 C          5.0366464238        0.9661558353       -1.0295343390
 C          6.3574875123        1.0651476978       -0.6213863976
 C          7.0103984525       -0.0288452002       -0.0714983579
 O          8.2875423029       -0.0500316572        0.3507889652
 C          9.0741898651        1.1120142987        0.2213159424
 C          6.3027246267       -1.2550014753        0.0705480346
 O          7.0109539764       -2.2648942816        0.6128255020
 C          6.4060882831       -3.5263365918        0.7685229278
 C          4.9824923808       -1.3295894788       -0.3449585021
 C         -0.0732656232       -1.1643983214       -0.8327053948
 C         -4.2073925401        2.7649769006        0.4941867168
 C         -4.9655683386        2.2694765392        1.7226319720
 C         -3.9266669138        4.2593436356        0.6245004031
 H         -4.2235285765        0.6915280228       -1.8419048664
 H         -8.2157625814        0.6504341031       -1.0156962571
 H         -8.4268843712       -1.1309421626       -0.5507942167
 H         -4.9520847116       -1.6316867157       -1.9985311959
 H         -5.1356018214       -4.0368900427        1.6569985237
 H         -5.0763420477       -5.2890393248        0.3922806286
 H         -3.5616849863       -4.6007741950        1.0243505416
 H         -3.3984110339       -2.4091518462        1.8944134279
 H         -2.6476232526       -0.1111733838        2.0488225831
 H         -2.9965811361        2.6255464053       -1.8077808199
 H         -1.7119361836        3.3494394088       -0.8486467324
 H         -1.7241586745        0.4633658401       -1.8532637853
 H         -0.9557420244        1.8319154304       -2.6624611158
 H         -0.9469298631        1.5300658527        1.0412633590
 H          0.6050924592        2.1450309060       -0.7213400885
 H          2.0670815375       -0.6817003182        0.6303011670
 H          2.2564123695        1.0295875806        0.2153122800
 H          2.7250691452        0.3663330275       -2.1644445869
 H          2.6836287523       -1.3350097998       -1.6754188953
 H          4.5546837016        1.8289471945       -1.4637311706
 H          6.8744673905        2.0028074353       -0.7422720548
 H          8.6645881215        1.9404439437        0.8071960495
 H          9.1696019410        1.4159445094       -0.8253753067
 H         10.0548283115        0.8453301893        0.6105306106
 H          7.1701461195       -4.1641533325        1.2085451732
 H          5.5444208426       -3.4781094604        1.4420369282
 H          6.0964638065       -3.9444592979       -0.1943434751
 H          4.4406239357       -2.2577671376       -0.2522227895
 H         -0.1491370731       -1.3960707920       -1.8973906191
 H         -1.0781034785       -1.1431562834       -0.4056986969
 H          0.4928142512       -1.9550116583       -0.3464344748
 H         -4.8530011190        2.6092804893       -0.3780119294
 H         -4.3401597350        2.3437106074        2.6067821708
 H         -5.2889131483        1.2404759175        1.5914508762
 H         -5.8492254690        2.8838753577        1.8739499808
 H         -3.2597230381        4.4441774961        1.4611157047
 H         -3.4911664558        4.6740099064       -0.2808263331
 H         -4.8607343799        4.7819454794        0.8133823331
 H         -1.2583674207        2.7372002307        3.0247596652
