25
 energy: -42.437649959970 xtb: 6.6.1 (8d0f1dd)
C            3.14373738095101        1.19365538383681       -0.00032799436277
N            2.25252206342625        0.07213862321877       -0.01310172225149
C            2.57917823179083       -1.24320934492564        0.01839496617845
N            1.43762009429124       -1.98363594913712        0.02630939051621
C            0.37353842723509       -1.14037530885177        0.00861193794517
C            0.86289832176893        0.16340349763630       -0.00687311263700
C            0.03228770215203        1.29684612659987       -0.02115485397404
O            0.38960600087725        2.47176486152204       -0.08598901639411
N           -1.35753222796238        0.95744730954751        0.01426810051362
C           -2.17722944325255        2.03138295368192       -0.11460437048724
C           -1.87208402567561       -0.34385424317715       -0.01241215823022
O           -3.06176897153436       -0.58096261500799       -0.07073574653370
N           -0.95212779651777       -1.40985070354781       -0.00422246439813
C           -1.41007587924449       -2.78350905809510       -0.01127379529894
H            3.60858035976662        1.31295751929321        0.98185670011760
H            3.92224171667694        1.06212800890099       -0.75404752753347
H            2.55428473594927        2.08719978436816       -0.21223368092837
H            3.57369440170301       -1.63567775053352        0.03405904928750
H           -1.78133093830447        4.41708289437229        0.44001991701093
H           -1.70031305539990        2.94295774646499       -0.45101472266230
H           -3.22372224319664        1.89848910568687       -0.04913132195433
H           -1.09767209861684       -3.29114947846267        0.90471102097666
H           -1.00593194908202       -3.31509410430047       -0.87541840487897
H           -2.49495122857143       -2.79851837303966       -0.07508392656643
H            1.40699135735025       -2.99082875883116        0.03931369175727
