72
 energy: 24.992297384791 xtb: 6.6.1 (8d0f1dd)
N           -1.47363517808166        2.98861012345954        2.34883367126603
C           -1.53507676380224        2.11544401079347        1.42409745336827
C           -2.68013897713217        1.97871519281872        0.45549201651316
C           -3.27575438040735        0.60303236756257        0.55276396878297
C           -4.24891827088306        0.24978580821446       -0.39186108828455
C           -4.75670639081638       -1.02609373293260       -0.47545342731264
O           -5.66192423504815       -1.44045393755023       -1.40797912208236
C           -6.21947180022566       -0.48595590696241       -2.27374284604160
C           -4.31593117231992       -2.01156498537526        0.43131729746644
O           -4.86837198987643       -3.24935844921386        0.25844319041527
C           -4.55152945906071       -4.24355390744224        1.19419618752081
C           -3.41061831693622       -1.65085415051510        1.41254206713539
C           -2.90263321161210       -0.35437092244960        1.47832667585475
C           -2.29043442030197        2.13318508945791       -1.37947064425644
C           -1.42387397719632        0.98562778680010       -1.78241514668617
C           -0.10919543050261        1.06822990819682       -1.11368009644709
N            0.52241902492797       -0.08513629780673       -0.63960209732753
C            1.89577250708554       -0.02685042242920       -0.22311668546763
C            2.86207497854740       -0.54447145452471       -1.31298856974263
C            4.28471734389612       -0.41932378507647       -0.86093688036321
C            4.99419791755845        0.75404217377706       -1.04475927871965
C            6.29882920440686        0.87792895555379       -0.58067503561519
C            6.91505692997553       -0.16973760572166        0.08258361298241
O            8.19266600476799       -0.16183124527194        0.56539034060332
C            8.98144463804771        0.97852424498016        0.34458556945778
C            6.19199202150414       -1.36394749413752        0.29839156168352
O            6.87281883656353       -2.34213939777864        0.96594154272686
C            6.24100706680985       -3.57826641774057        1.17209757158164
C            4.89292801545215       -1.46636374050266       -0.16871742326135
C           -0.14009412338257       -1.35481859146947       -0.65169625032181
C           -3.77502851441053        3.04515828942236        0.68836490834809
C           -4.34362077383459        3.09414457586950        2.10331613691996
C           -3.22226980444056        4.40897513202783        0.30193690200122
H           -4.58677608962063        0.99462075353322       -1.09021855869851
H           -6.71829383231547        0.32297405247206       -1.72864753233363
H           -6.95637558584990       -1.01523192312343       -2.87567118319978
H           -5.45962492465429       -0.06551569852105       -2.93932603728379
H           -4.82667346847482       -3.94954851350233        2.20976178251189
H           -5.13438384644824       -5.11630780624392        0.90386892639837
H           -3.48521928573909       -4.49137635015202        1.17098089091510
H           -3.06372284482676       -2.38253525252104        2.12535979839108
H           -2.20271268184949       -0.12072527384170        2.26545929762412
H           -3.15950324332164        2.18078300233591       -2.06895678436575
H           -1.66401760533781        2.99067484568411       -1.60768285050499
H           -1.98720342770911        0.07274237824043       -1.52561348590810
H           -1.32294426983271        1.09099999956310       -2.88121211609516
H           -0.75905710863724        1.36915531983369        1.22762116606555
H            0.56417099103686        1.92655068763091       -1.22878560250118
H            2.02447063458284       -0.59807241400258        0.69820441049400
H            2.16832528350352        1.00336575952586        0.02143858653104
H            2.70084077596673        0.05517438389020       -2.20661559880266
H            2.61013475828267       -1.58328343672143       -1.53160333812838
H            4.53323523126164        1.58290688459618       -1.55997352992711
H            6.83448536939878        1.79982489471610       -0.75002551083090
H            8.55645031483896        1.85859980684561        0.83640951725516
H            9.10998270637812        1.18625372268771       -0.72405440099280
H            9.95445714358561        0.75988561542390        0.78349652020663
H            6.97269908350017       -4.20701456379651        1.67919314663408
H            5.35576891500060       -3.47327371276954        1.80696585401622
H            5.95513157741348       -4.05295717888509        0.22667047127845
H            4.32864707587991       -2.37163474103181       -0.00874170565798
H           -0.29178984101864       -1.70341911916283       -1.67764193719823
H           -1.11260519946038       -1.26783609437641       -0.16231877199051
H            0.45775809494715       -2.09001919195453       -0.11244491193486
H           -4.64667031810986        2.81090079244111        0.05750077204641
H           -3.54376016440825        3.33027750740881        2.78522960153641
H           -4.78544035144189        2.14867894222086        2.40288636722644
H           -5.12171325909360        3.85461036220746        2.15640664650356
H           -2.38796805432981        4.60205071677008        0.96815849088074
H           -2.88852795756003        4.40137177505353       -0.73289007307694
H           -3.97713639812494        5.18011492586321        0.42797442051286
H           -0.61891807607882        2.89392107842249        2.90070686046034
