72
 energy: 62.958512144573 xtb: 6.6.1 (8d0f1dd)
N           -1.18558558589295        3.12658049304653        2.36563396864356
C           -1.58483469714653        1.97941173014182        1.93905262924842
C           -2.75502316821075        1.83295066754296        1.18233732211628
C           -3.24521649486848        0.51752521142439        0.92158882808724
C           -4.15869205508326        0.24072141638860       -0.13055451961282
C           -4.60745118213652       -1.03073137225064       -0.40035604559909
O           -5.42826464303983       -1.35339414920812       -1.44992961274487
C           -5.96167867004656       -0.31249639849144       -2.22839871620422
C           -4.18966216825641       -2.10566019385405        0.41019340899940
O           -4.67264123133256       -3.33226690046686        0.05766775574511
C           -4.38428924371380       -4.42311781173401        0.88826635283289
C           -3.36063086887460       -1.83652382561222        1.48824277931949
C           -2.89244049789492       -0.56047373056155        1.73623902808146
C           -2.20055875754271        2.16847281727901       -2.23707862124942
C           -1.58039685306204        0.85788224606162       -1.91786250361148
C           -0.20016167747202        0.88751280271275       -1.44463511051110
N            0.36352882270180       -0.06018050889021       -0.68442695135562
C            1.74793053877685        0.03772878591910       -0.27705275080819
C            2.74187879272689       -0.51978058856898       -1.31832041631049
C            4.16131888135994       -0.37872207338090       -0.83548949503419
C            4.86699683675125        0.79531978701739       -1.02636817546105
C            6.16977827874702        0.92815580935814       -0.55907689678534
C            6.78971544360130       -0.11408324744211        0.10843207925146
O            8.06520844718900       -0.10072885045297        0.58545400788891
C            8.85006617921310        1.04617633536680        0.37107668431614
C            6.07280706549399       -1.31538216719509        0.32298716782616
O            6.75712846921682       -2.28765451150869        0.98846047766595
C            6.13095334653018       -3.52727010729841        1.20093333061762
C            4.77543184427584       -1.42580419545185       -0.14730659615932
C           -0.27075055545342       -1.34955233107389       -0.67680649198983
C           -3.65797118846642        3.01526450064084        0.91902986951593
C           -4.10450377296456        3.58607778548619        2.24718414325228
C           -3.01844125632294        4.09922478366093        0.04061704579745
H           -4.49733690901439        1.05184379518480       -0.75411986543518
H           -6.52523449290144        0.41169436621835       -1.63074580739567
H           -6.63088770717775       -0.77391904195151       -2.95114837115408
H           -5.16389967251508        0.20453223643910       -2.76703639625782
H           -4.74195590758041       -4.27941625910765        1.91046528786390
H           -4.90981304760158       -5.26672145651493        0.44698030565437
H           -3.31090490522773       -4.63227087234433        0.91271663299219
H           -3.05969167582582       -2.63227196886242        2.15030152737708
H           -2.28289983949462       -0.39187425889972        2.60477853632033
H           -3.12411494049608        2.16564547824325       -2.78624248523929
H           -1.50894496587772        2.95285537799288       -2.43784899665618
H           -2.25595279348090        0.24102952089588       -1.33219836701775
H           -1.53144088486166        0.48533507022771       -2.94127832617256
H           -1.01000102657386        1.05107678096599        2.05812622055310
H            0.34720165898765        1.82815856004468       -1.48768577135792
H            1.85759775852617       -0.49712976073357        0.66838635167398
H            1.99895722381668        1.08027086647929       -0.08634098933367
H            2.61671088469141        0.03514168321163       -2.24943979185279
H            2.50360844395865       -1.56809954239599       -1.50460457974893
H            4.40656133939279        1.61951191176853       -1.55124735335321
H            6.69787986176838        1.85395464928131       -0.72808773047966
H            8.42105820504184        1.92428896790957        0.86277676998827
H            8.98009727397671        1.25312622765573       -0.69674053862922
H            9.82138328251587        0.82949484818666        0.81335748048261
H            6.86297965256384       -4.14795518539855        1.71669903170620
H            5.24129755856670       -3.42413700947536        1.83017748844215
H            5.85510056188129       -4.00767435475932        0.25601513336571
H            4.22045367090061       -2.33885013804999        0.00430950731972
H           -0.41065925468550       -1.74753564471375       -1.69020752121613
H           -1.25290110053727       -1.25781781653254       -0.20897175514330
H            0.33869084953122       -2.04503753355764       -0.10954357037436
H           -4.60300176053108        2.68838704370925        0.45380592367077
H           -3.24181241276705        3.93929583358391        2.78012741437510
H           -4.59619525343434        2.83170045708530        2.85331328546067
H           -4.80624327738426        4.39294415798816        2.07430330529070
H           -2.10392581015268        4.42824090794750        0.52563594214631
H           -2.81897088686538        3.65690436306852       -0.93971990882714
H           -3.65747538741917        4.98186187674404       -0.09053159503488
H           -0.44569017968559        3.05550990271793        3.04821200813927
