72
 energy: 64.236916964853 xtb: 6.6.1 (8d0f1dd)
N           -1.21165918631096        3.12806782919627        2.37274362383088
C           -1.57274953242726        1.99211010738926        1.89007163301079
C           -2.74115967153283        1.84353113986152        1.12771260814088
C           -3.23944226902287        0.52612587631182        0.88308208430271
C           -4.16433510764759        0.24123349334616       -0.15685574878247
C           -4.61902883934115       -1.03086696370613       -0.40938798638454
O           -5.45325030555366       -1.36155669894377       -1.44368098906515
C           -5.98639881985910       -0.32972157162115       -2.23231506680737
C           -4.19995849120004       -2.09670772133890        0.41134837658045
O           -4.69191245044094       -3.32510835901571        0.07903195064275
C           -4.39946260393215       -4.40625798812481        0.92051549621547
C           -3.36326974134156       -1.81901190414732        1.48044660898064
C           -2.88930849027280       -0.54137617016967        1.71063901695797
C           -2.21203295848208        2.16374797135881       -2.16566524395554
C           -1.57213642593870        0.85514305591757       -1.88644221598989
C           -0.19517779943889        0.89611746794580       -1.41267326810639
N            0.38120866332641       -0.06965031876019       -0.69193866975521
C            1.76252407841325        0.02936649233878       -0.27390262699376
C            2.75429640514219       -0.52339269294759       -1.31886139209825
C            4.17403909863712       -0.38326042791363       -0.83803437769391
C            4.87949995677020        0.79088803847733       -1.02872363111639
C            6.18250523485771        0.92295849206260       -0.56157675991729
C            6.80210207938467       -0.11951719243395        0.10633880798858
O            8.07776560011191       -0.10663614151454        0.58329908768375
C            8.86301473852414        1.03964213741151        0.36755953369548
C            6.08470952544351       -1.32050151550025        0.32148111256634
O            6.76872906040451       -2.29296015973239        0.98746898614244
C            6.14196166587296       -3.53218913238234        1.19966318986818
C            4.78716042967919       -1.43028525305394       -0.14897661981541
C           -0.25854657004220       -1.35681085310055       -0.67761941904035
C           -3.66300697124843        3.01839073566624        0.89131182159074
C           -4.12928593361353        3.53975035877487        2.23171377203021
C           -3.03447536373643        4.13980690537887        0.05607448809677
H           -4.50627283864957        1.04575269777525       -0.78662506091990
H           -6.54295842250524        0.40509253357218       -1.64254569391194
H           -6.66413486079842       -0.79817170486590       -2.94095940558179
H           -5.19044261214717        0.17482292221550       -2.78442456288501
H           -4.74715154064194       -4.24732575169708        1.94345960020803
H           -4.93077829249234       -5.25381618379905        0.49490189545384
H           -3.32680471969550       -4.61883715621413        0.93916678718127
H           -3.06063751046318       -2.60800122652789        2.14963209915917
H           -2.27438323602131       -0.36366892989657        2.57337129559569
H           -3.13070516087506        2.16341248229465       -2.72291964453368
H           -1.52072105861683        2.95029027052104       -2.36163368280250
H           -2.23917321931195        0.19804179272852       -1.34152108582789
H           -1.51655412326866        0.54910719428456       -2.93162624556315
H           -0.98054618354623        1.06472482269407        1.96782072520857
H            0.37870513436786        1.82178368793271       -1.48374827719100
H            1.87329281295427       -0.50776533890636        0.66982223720667
H            2.01483854021011        1.07045345194577       -0.07649152061382
H            2.62647566732076        0.03589200119538       -2.24659127658648
H            2.51424841344470       -1.57060958962555       -1.50861209640940
H            4.41891063451049        1.61515856328130       -1.55338695699551
H            6.71127856551618        1.84820078884725       -0.73134809471124
H            8.43414157131449        1.91796809473680        0.85883032771975
H            8.99248244356492        1.24599543979872       -0.70045599744361
H            9.83483461658830        0.82368852864433        0.80932937319091
H            6.87294422198834       -4.15482923162436        1.71488473836237
H            5.25229153819722       -3.42810470525946        1.82838911222631
H            5.86513488211314       -4.01170405039557        0.25453597884065
H            4.23106618457378       -2.34250937539929        0.00333982959241
H           -0.39870494798111       -1.75290058766165       -1.68996855042737
H           -1.23860031908293       -1.26126259067426       -0.20544899374721
H            0.34559289503687       -2.05774443299053       -0.11006154090625
H           -4.60275404230583        2.69958185317876        0.41190026056108
H           -3.27618511493725        3.88341552550320        2.78382296315893
H           -4.61560459642512        2.76019013439352        2.80513515012896
H           -4.84022636192271        4.34167647677330        2.08343760043475
H           -2.12747742375837        4.46032808739048        0.56240220827593
H           -2.82546709098517        3.73730934185309       -0.93639924447594
H           -3.68608778691190        5.01504486302532       -0.04267866472901
H           -0.46771634300945        3.03922506945081        3.05167961864660
