72
 energy: 53.563036457805 xtb: 6.6.1 (8d0f1dd)
N           -1.20781729272072        3.13579798747230        2.55953147285308
C           -1.68954648232230        1.96931197762004        2.28524408795258
C           -2.88071628710045        1.78059178281369        1.55668688110712
C           -3.29795964461712        0.46483790422744        1.18173300182278
C           -4.10792585098318        0.25056470655627        0.03770449419073
C           -4.51021829821825       -1.00858249390449       -0.35404866907963
O           -5.27063309793756       -1.27780142621924       -1.45891474192010
C           -5.80705308370578       -0.20324104612352       -2.18651355034850
C           -4.12109498563337       -2.14084324064187        0.39535404547616
O           -4.57379814553671       -3.34668197609310       -0.06943688311675
C           -4.32150812635027       -4.49576448242428        0.69320315088750
C           -3.33251943867264       -1.94971916659573        1.52045345166011
C           -2.92628137436506       -0.68492367507102        1.90101389182050
C           -2.04963658334513        2.17183851467380       -2.72253520807783
C           -1.55416432774410        0.94062792037803       -2.10038912471645
C           -0.26332986590268        1.02575800627196       -1.41931043063506
N            0.31863929244509        0.00788105816489       -0.78179134574596
C            1.67307885567368        0.11114243209232       -0.30194821191607
C            2.67694231561062       -0.48768955800167       -1.30697750671759
C            4.08758505340684       -0.34823419636493       -0.80949904135604
C            4.78992752388565        0.82554005371784       -1.00406444228372
C            6.09416074464501        0.95724935576255       -0.54754705049101
C            6.71540837869142       -0.08661528542340        0.11434504137737
O            7.98938699296829       -0.07673313030996        0.58869399794034
C            8.77647689626229        1.07022617955060        0.38737447368431
C            6.00113104109394       -1.28863755221146        0.32936658504783
O            6.69055270868826       -2.25976908406803        0.98643854247963
C            6.07477619371781       -3.50394887746947        1.20082267576191
C            4.70172408456265       -1.39959219799624       -0.13040248917881
C           -0.32511395798530       -1.27550503664150       -0.72658378922321
C           -3.68307177742494        2.98224193145570        1.12257071025970
C           -4.00605719743344        3.88819110042655        2.31751733210473
C           -2.94216392498017        3.78166203350196        0.04523909198657
H           -4.42347682218575        1.10290628114436       -0.54042042345254
H           -6.42098916285413        0.44778185013694       -1.55557398148063
H           -6.43501077770405       -0.65602145434879       -2.95283582275149
H           -5.02516997232974        0.39398000956272       -2.66924651808622
H           -4.73857241491682       -4.41573583420543        1.70314318231376
H           -4.81675612651087       -5.30931478437945        0.16440480042798
H           -3.24883686902048       -4.71237852620606        0.76225487956388
H           -3.04231031819590       -2.79370281657953        2.12803914408958
H           -2.35173939292951       -0.58822240885102        2.80842917376594
H           -3.02121277575148        2.19102236373929       -3.17060675131436
H           -1.38314959766449        2.98912975124146       -2.91663522564333
H           -2.30865789269944        0.54391763862964       -1.39592213089629
H           -1.48334766633510        0.14348233328657       -2.86011454046891
H           -1.15252471431284        1.04981743385207        2.56834890876804
H            0.27189557527670        1.96185746107178       -1.42777091202421
H            1.75293998249758       -0.41371881299850        0.65367519818829
H            1.91533219506824        1.16217234885505       -0.13419210077981
H            2.56630871589923        0.03771644805576       -2.25782737777469
H            2.44079293067517       -1.54101823169283       -1.46724741016122
H            4.33029510013388        1.64987754547975       -1.52837921105825
H            6.61873207714059        1.88252049215287       -0.72408222933270
H            8.34906888172766        1.94762237717473        0.88390407324916
H            8.91291286387210        1.28558215283473       -0.67772667437547
H            9.74270511085008        0.84032570682695        0.83382625391710
H            6.81828940683129       -4.11051338239531        1.71568091983382
H            5.18453998356848       -3.41368621910345        1.83254669229427
H            5.80428974048433       -3.98985509637880        0.25711384949399
H            4.15077564747001       -2.31532452117766        0.02074936941466
H           -0.46498611509344       -1.69305167261903       -1.72968025563103
H           -1.30748144086840       -1.18701775866561       -0.25517609393895
H            0.28268360666481       -1.96101192827463       -0.14178357988965
H           -4.64191006867130        2.64112813118676        0.71751460369272
H           -3.08473314777930        4.27724624456720        2.73835095268438
H           -4.53577675015515        3.32832586532443        3.08661041351862
H           -4.63457740328132        4.71645704104709        1.99582095579537
H           -2.00190823697779        4.14048351655198        0.45307550555851
H           -2.72972450751115        3.16307144369170       -0.83331991687776
H           -3.53929788198762        4.63517716709714       -0.27048010967420
H           -0.33669290820430        3.11908216218139        3.08468827354754
