72
 energy: 65.837128746353 xtb: 6.6.1 (8d0f1dd)
N           -1.27697979116268        3.10658282202329        2.39777744447208
C           -1.56352149585808        2.01486439976233        1.79088899916354
C           -2.72708076572743        1.86879123804522        1.01178666180880
C           -3.23978354779646        0.54445080088703        0.80758330625120
C           -4.17940437892796        0.24205786976006       -0.21066356420716
C           -4.64560168189206       -1.03158197969847       -0.42767054450791
O           -5.50290740710854       -1.37612667984489       -1.43528063358097
C           -6.03842547820488       -0.36147048937719       -2.24412747782537
C           -4.22429672125714       -2.08047895263179        0.41355439297273
O           -4.73453240133906       -3.31410929180271        0.11905498281052
C           -4.43514664689285       -4.37684907777879        0.98172667738430
C           -3.36997137777077       -1.78466019347196        1.46298476747651
C           -2.88634240071170       -0.50357474918758        1.65682946086266
C           -2.23716635326711        2.16244528825762       -2.01616088067976
C           -1.55074917894502        0.86473750013408       -1.83315241853270
C           -0.18197240304956        0.92423614928642       -1.34588690330419
N            0.41823380149369       -0.08455012890835       -0.71338830886903
C            1.79143868870034        0.01257277247176       -0.26708220963946
C            2.77941443585651       -0.53020616375396       -1.31863836392149
C            4.20019266611779       -0.39246159724804       -0.84358235322780
C            4.90557518345987        0.78174800161332       -1.03330882559401
C            6.20852271556342        0.91300263331164       -0.56461818618464
C            6.82763012843021       -0.13104658802595        0.10206668476277
O            8.10318332308160       -0.11810852592034        0.58206351480032
C            8.88944320220308        1.02631753749876        0.36381558648796
C            6.10928289616557       -1.32997136017319        0.31800541112373
O            6.79164100167148       -2.30308254902836        0.98670884010493
C            6.16383759719627       -3.54192916002514        1.19332746949944
C            4.81142175390951       -1.43889592341397       -0.15266466413789
C           -0.23310477435656       -1.36750796448791       -0.67637348367328
C           -3.68455473608015        3.03297945825300        0.84709356197978
C           -4.17966941609871        3.45391682615110        2.21313997026013
C           -3.07042246889429        4.21499647776110        0.09955597948222
H           -4.52338069943820        1.03357721910218       -0.85397715494939
H           -6.58289589679717        0.38954093096334       -1.66015876174699
H           -6.72930462731257       -0.84359385118916       -2.93385042115548
H           -5.24964473196345        0.12661689477463       -2.82589782946864
H           -4.76359257593113       -4.18521631078211        2.00571704478134
H           -4.97524586142225       -5.23999607824474        0.59056942545115
H           -3.36122350957977       -4.58944391179066        0.99029478103619
H           -3.06329377691788       -2.55892062391788        2.14773244478185
H           -2.25877623184161       -0.30849524694777        2.50716969304247
H           -3.14580803748902        2.16223765880003       -2.59318696619731
H           -1.54540900794608        2.95001423420974       -2.20580092243172
H           -2.21379995874670        0.13076312274194       -1.36332514398992
H           -1.47747776265915        0.67841554120615       -2.90829855232837
H           -0.92459660059674        1.12553499656718        1.79958844666149
H            0.42773126861301        1.83676234833315       -1.44971824776197
H            1.90342052480322       -0.52969960379088        0.67300232453759
H            2.04272691976495        1.04954486790546       -0.05411792683417
H            2.64106151817800        0.04038549127686       -2.23654938117928
H            2.53621711538509       -1.57522555735356       -1.51646829663055
H            4.44393203749086        1.60570392569518       -1.55708294805442
H            6.73872455369981        1.83885974709135       -0.72974006438966
H            8.46074392039591        1.90501967170944        0.85397514255833
H            9.01861093337092        1.23251690934084       -0.70478960536209
H            9.86311449014885        0.81478939804129        0.80442749475650
H            6.89276128247145       -4.16880243691532        1.70677292969931
H            5.27412331605498       -3.43780615929537        1.82157607178853
H            5.88566786546513       -4.01853845374820        0.24668866188806
H            4.25288967245295       -2.34875166541616        0.00100438064676
H           -0.37453761096449       -1.75510887542620       -1.68886282489441
H           -1.20982833512428       -1.26744194238787       -0.19711464689956
H            0.36336155724024       -2.07863947283086       -0.11054870929343
H           -4.60693817746211        2.73052984748453        0.33232955329535
H           -3.33545570035113        3.76275103036531        2.80363863388060
H           -4.65125657242976        2.62156589110458        2.70515393347521
H           -4.91134951022536        4.24966097527993        2.12533592049279
H           -2.18010346267232        4.50919671652618        0.64664591136562
H           -2.83811924061790        3.89772411546079       -0.91476248546413
H           -3.74590261592847        5.07101204355936        0.05972103208779
H           -0.50410580472526        2.99595667731345        3.04536961216209
