72
 energy: -3.008465598385 xtb: 6.6.1 (8d0f1dd)
N           -1.50068690270304        2.88237973755273        2.26922999511765
C           -1.54740274834002        2.13472432690920        1.25528125295140
C           -2.71513419576240        2.02303980100826        0.31981291813031
C           -3.30501709665979        0.63006729027488        0.42718758186218
C           -4.28410144169141        0.24945850231499       -0.49528666500618
C           -4.81243278163629       -1.02326738478966       -0.50567467036644
O           -5.75199512843982       -1.47142620820884       -1.38527206761580
C           -6.32046902128716       -0.55784125698101       -2.28695316797615
C           -4.36503783800475       -1.97174483527122        0.43876005507024
O           -4.94188353338947       -3.20427394205488        0.34359387031350
C           -4.61665927428315       -4.16209492651727        1.31521040056287
C           -3.42133172533700       -1.58779295547087        1.37159323544286
C           -2.89938624813944       -0.29689332623889        1.36695458257975
C           -2.26347178257346        2.19256924458654       -1.21665464456428
C           -1.32816294404582        1.09898501067713       -1.71926619863750
C           -0.03469118271155        1.11459766252364       -0.99007912807473
N            0.58898556777600       -0.06167054816793       -0.57875228867597
C            1.96265358381790       -0.03465663498041       -0.18640612958917
C            2.90739612451092       -0.54541052633146       -1.29774469849947
C            4.33173018953124       -0.43031504348602       -0.85522486808381
C            5.04290723612050        0.73989781684286       -1.04619815276277
C            6.34988414293357        0.85768277007298       -0.59204691573135
C            6.96330087616187       -0.19209282772062        0.06934942880300
O            8.24155252798667       -0.18936854323136        0.54770575284621
C            9.03189777312030        0.95031241908192        0.33127911194462
C            6.23831304848359       -1.38476780409904        0.28786309431968
O            6.91922893931695       -2.36532975953130        0.94885732984798
C            6.28389797369722       -3.59878281335875        1.16097396667465
C            4.93723235060727       -1.48275005305680       -0.16995962950635
C           -0.08691152866754       -1.32490438107116       -0.63196938171596
C           -3.83390616709685        3.05396120306262        0.62303994839096
C           -4.43445345153806        2.90786125805871        2.01556956869686
C           -3.31957423630491        4.47522531277792        0.44524603653741
H           -4.62818154895767        0.96674823526719       -1.22014032551129
H           -6.79357812851106        0.28524298623949       -1.77217686089790
H           -7.08123128858684       -1.11467847326464       -2.83094052859626
H           -5.57846593110870       -0.18207993866351       -2.99854256934435
H           -4.85931566858893       -3.81401731432288        2.32302853214098
H           -5.22512117924855       -5.03344906814303        1.07931761872795
H           -3.55703309132800       -4.43666307829777        1.27478251515150
H           -3.06510727434434       -2.29028584683444        2.10781521545976
H           -2.17013888192017       -0.03692069306406        2.11914873649900
H           -3.13337765675159        2.25905848047935       -1.89036591046082
H           -1.67833509765738        3.11682780262213       -1.36345783495036
H           -1.86421167296286        0.15128366947676       -1.58423683530970
H           -1.14919647617931        1.27836211423256       -2.79584655081923
H           -0.71008929774956        1.52729417183924        0.88454871525439
H            0.62100024477622        1.97432838811662       -1.06116981317961
H            2.08915449954324       -0.63773403659447        0.71450947891937
H            2.24687328705549        0.98883531204085        0.07168554773085
H            2.73694001520457        0.06272462949531       -2.18512431799411
H            2.65146739046408       -1.58111518663455       -1.52518140416592
H            4.58375087233303        1.57057018464729       -1.56035249075042
H            6.88667366764154        1.77656940335266       -0.76940520021497
H            8.61005076177317        1.83142118508554        0.82521053244548
H            9.16152758648966        1.16003297121799       -0.73659593706152
H           10.00216217518000        0.72322277431024        0.77107548428351
H            7.01891430058880       -4.22526517293603        1.66506832774904
H            5.40205505935383       -3.49267629269580        1.80125193692667
H            5.99268098807000       -4.07498547286184        0.21803144483844
H            4.37127793808693       -2.38703806412002       -0.00879230800869
H           -0.24993468212515       -1.65604881030724       -1.66334447527253
H           -1.05738645003643       -1.25207713360578       -0.13338989107928
H            0.51645453948501       -2.07120150046961       -0.11640203407007
H           -4.65730180427681        2.88700387855499       -0.08550364824078
H           -3.66352373942907        3.08381853741859        2.75256320468833
H           -4.84487692554596        1.91501512001847        2.16802419680804
H           -5.23909157579725        3.62965053939378        2.14330780063083
H           -2.51087300849409        4.63744564097980        1.15040391598189
H           -2.96435425778766        4.63805124943312       -0.56620498573969
H           -4.11704176342858        5.18447227227348        0.64617236911219
H           -0.62775155116818        2.82681480347964        2.79423450867154
