72
 energy: 65.463439276524 xtb: 6.6.1 (8d0f1dd)
N           -1.34419543981375        3.05370373568432        2.41794459064305
C           -1.55785076949551        2.03094423572183        1.68720295753133
C           -2.71623319327006        1.89359509044598        0.88262461928619
C           -3.24845688314467        0.56199574250037        0.73547730768363
C           -4.20021216333075        0.24917095456495       -0.26077045663227
C           -4.67783928116222       -1.02715039233922       -0.43893079319129
O           -5.55075238666535       -1.39236404230761       -1.42498244328584
C           -6.09136124138240       -0.39651255551458       -2.25311448153408
C           -4.25029171869154       -2.06201081232997        0.41700452294533
O           -4.77409157809606       -3.30287644715954        0.15247247890856
C           -4.46892546563785       -4.34032113653835        1.04221182446412
C           -3.38042453232552       -1.74862039050376        1.44934602398829
C           -2.88887286447499       -0.46326820825768        1.60759449869393
C           -2.26125469244159        2.15603616077053       -1.85292372314274
C           -1.52369595178622        0.88011374766526       -1.80589045900493
C           -0.16658778016138        0.95587028965098       -1.27949293835013
N            0.45384637128707       -0.09278256456223       -0.71875956169788
C            1.82218374123528       -0.00025353873530       -0.25914078720267
C            2.80353647667123       -0.53591164738164       -1.31969573082291
C            4.22516042910164       -0.40141763739185       -0.85335492546265
C            4.93145806389608        0.77292255615470       -1.03888106180646
C            6.23445372362067        0.90283497072810       -0.56880473718744
C            6.85344444018056       -0.14171935656858        0.09748958084426
O            8.12820004992715       -0.12859076346991        0.58187738224123
C            8.91626897347205        1.01340628619913        0.35935597097960
C            6.13335436616228       -1.33900590596530        0.31247770392123
O            6.81381020115366       -2.31323848495790        0.98376302904604
C            6.18579644672507       -3.55232612630704        1.18763655895175
C            4.83552090375191       -1.44625219002580       -0.16018606080729
C           -0.20520451643846       -1.37348276331216       -0.67222263902654
C           -3.71085240660979        3.04127396355872        0.81041146159944
C           -4.23507175100744        3.35038348311808        2.20190575475299
C           -3.10954687313078        4.27921604522980        0.16040933426306
H           -4.53430134744194        1.03028286422973       -0.92154291218579
H           -6.62257468363991        0.37152162039229       -1.68003871630023
H           -6.79554947120920       -0.89274813828518       -2.91970837084635
H           -5.31011386384041        0.07242650729484       -2.85950409177575
H           -4.78207310534599       -4.11711917511268        2.06476692880949
H           -5.02102724246874       -5.20807176091709        0.68231494937649
H           -3.39645253464528       -4.56166408375513        1.04217299769474
H           -3.06212732435329       -2.51052637658060        2.14329328238832
H           -2.24245660376444       -0.25035931770302        2.44308279399017
H           -3.15816529966145        2.16528142689104       -2.45659721046828
H           -1.57562632340796        2.95017653952209       -2.04064668939662
H           -2.16463459366063        0.07583957823440       -1.38973832361786
H           -1.43537906462314        0.80019705387862       -2.89675885889869
H           -0.86824665420956        1.19736395379257        1.62872630298696
H            0.46894295054529        1.85803882792770       -1.40915501081161
H            1.93556595806908       -0.54925681817359        0.67649659769716
H            2.07717702073689        1.03519579682729       -0.03460444845947
H            2.65901113146067        0.04410750367942       -2.23009227381077
H            2.55721852221519       -1.57930846275059       -1.52259545215148
H            4.46920699347160        1.59866432599154       -1.55792839905080
H            6.76616865864622        1.82786575943497       -0.73400985811423
H            8.48880315835226        1.89261635899612        0.84944568994063
H            9.04487776192830        1.21901018543453       -0.70956928080181
H            9.89008259950877        0.80011576550877        0.79890336697201
H            6.91538807183673       -4.18019290270203        1.69900130342560
H            5.29723245701973       -3.44829224807265        1.81734533432556
H            5.90609027452023       -4.02774224935742        0.24078077049821
H            4.27492924161767       -2.35421146200340       -0.00347041182971
H           -0.34987153932010       -1.74903654261031       -1.68886435030983
H           -1.18031541912170       -1.27109653998318       -0.19000987479017
H            0.38432623618155       -2.09684071209309       -0.10929132329999
H           -4.61271999972395        2.76436886083473        0.25206115547104
H           -3.39594108283329        3.64248848382430        2.80760216804965
H           -4.69625059288349        2.48100924576499        2.65757374629478
H           -4.97755424507519        4.14153605074779        2.14825884747093
H           -2.23137600705781        4.54064280734020        0.74282764162607
H           -2.85201990479019        4.04969631416725       -0.86633513568990
H           -3.81232465224428        5.10768313989154        0.16828122265532
H           -0.53050700006292        2.95346682440586        3.01441691758635
