72
 energy: 14.208610953963 xtb: 6.6.1 (8d0f1dd)
N           -1.49206759291728        2.97159767515691        2.31911350837299
C           -1.53960476269991        2.12454451800519        1.37427302897656
C           -2.68642102840963        1.98980977382854        0.40319314188030
C           -3.28321099633147        0.60979826339334        0.51911904766267
C           -4.25851657401396        0.24952788166596       -0.41862912299489
C           -4.77169800283114       -1.02560703416759       -0.48330377569523
O           -5.68518207564506       -1.44898902296772       -1.40303132819452
C           -6.24574471791533       -0.50429151069253       -2.27739220501913
C           -4.32889925252029       -2.00145981997491        0.43323268502833
O           -4.88750911486696       -3.23835633254429        0.27956118134718
C           -4.56787162265142       -4.22321518302190        1.22438540396257
C           -3.41465507909044       -1.63382114265354        1.40283585907593
C           -2.90273258001374       -0.33797954674473        1.45024842600930
C           -2.28637485045089        2.14172422558535       -1.32250907152919
C           -1.39992419643966        1.01262913628137       -1.76621757686766
C           -0.08944805802175        1.08241310449549       -1.08347781760043
N            0.53847049412333       -0.07955993385712       -0.62122745068413
C            1.91272085261133       -0.02973470309461       -0.21380544445953
C            2.87372948004880       -0.54514616012648       -1.30971270296518
C            4.29695752348828       -0.42249474122756       -0.86069432793265
C            5.00691588891402        0.75026300739028       -1.04565481728458
C            6.31204384569718        0.87269015309166       -0.58356272573253
C            6.92762085655785       -0.17555740212964        0.07918824606879
O            8.20544551767101       -0.16879500203649        0.56132886657716
C            8.99445315091870        0.97138764190304        0.34135994887321
C            6.20403132883718       -1.36929717806053        0.29550342023644
O            6.88494005774523       -2.34805465752089        0.96182197766405
C            6.25255857226243       -3.58366513004930        1.16920913927276
C            4.90453561002628       -1.47062740668559       -0.16976512517767
C           -0.12668950049196       -1.34799055849885       -0.64611486945684
C           -3.79028413682349        3.04575000601593        0.66903072734458
C           -4.36572752156148        3.04458219965474        2.08200960994303
C           -3.24694652271519        4.42731486744216        0.33675186727366
H           -4.59721189835173        0.98736804183992       -1.12408346410864
H           -6.73810763406207        0.31309863465308       -1.73925256087122
H           -6.98884141157488       -1.04053456560112       -2.86516979271579
H           -5.49045276329673       -0.09455563884095       -2.95480433851429
H           -4.83484927369860       -3.91548688961760        2.23822837136770
H           -5.15668427149797       -5.09635058645324        0.94798547346588
H           -3.50292147141568       -4.47674215382923        1.19654189863804
H           -3.06516862704751       -2.35835032958478        2.12147416488292
H           -2.19455888323776       -0.09822607780764        2.22839282664258
H           -3.15476701055532        2.19237741856404       -2.01298589801440
H           -1.66894702782273        3.01631361784074       -1.54066855644871
H           -1.95012216558062        0.08384789679513       -1.54095098466553
H           -1.28287316000795        1.14245832861574       -2.86081130692980
H           -0.74548090535116        1.40737945722794        1.14234504274944
H            0.58067145463247        1.94010486477760       -1.18781918517733
H            2.04184245257259       -0.60803318131082        0.70268732992213
H            2.18795750377653        0.99906913279870        0.03375620173558
H            2.70956393059574        0.05718281084121       -2.20113113476350
H            2.62076073247053       -1.58311575690538       -1.53088448458569
H            4.54632915302589        1.57957013366875       -1.56047674811353
H            6.84824823074186        1.79381780237559       -0.75452663998932
H            8.56996361015129        1.85162058010858        0.83360228442796
H            9.12320711834794        1.17962594093648       -0.72712803118792
H            9.96696818631751        0.75115861538967        0.78044286581403
H            6.98506976000631       -4.21190999806113        1.67558059536573
H            5.36812927972596       -3.47851690163714        1.80535867901310
H            5.96544664905460       -4.05876051625421        0.22437151496643
H            4.33965358777750       -2.37545857903233       -0.00926452843740
H           -0.28123597303831       -1.69132587655177       -1.67382253747723
H           -1.09879444611213       -1.26516214050497       -0.15453462340007
H            0.47230193616392       -2.08698014403556       -0.11349499636573
H           -4.65157526980033        2.82722972966387        0.01968096522755
H           -3.57274146486793        3.26711797806617        2.77755390640500
H           -4.80073947186630        2.08591166201295        2.34727322312001
H           -5.15065524818729        3.79639931623963        2.15535741466812
H           -2.41937775742719        4.61053844103142        1.01400161769330
H           -2.90505160301656        4.46307732878212       -0.69363853959089
H           -4.01188859510283        5.18475278420285        0.48236922851483
H           -0.63445272066115        2.88427183419834        2.87096196719249
