72
 energy: 38.082565653172 xtb: 6.6.1 (8d0f1dd)
N           -1.44793225588642        3.00530243087926        2.37650516488026
C           -1.53490247395115        2.10959425101184        1.47067198239443
C           -2.68259695248524        1.96670116708976        0.53678339801385
C           -3.26876143739403        0.59747238396829        0.59007738686976
C           -4.23895680575431        0.25084360561516       -0.36354000476209
C           -4.74076491998856       -1.02578559144341       -0.46713795600020
O           -5.63800368222745       -1.43141213624405       -1.41250437755796
C           -6.19308986379411       -0.46790184259228       -2.26990814590510
C           -4.30243497804326       -2.02156005404146        0.42913833613225
O           -4.84945950386366       -3.26014110095803        0.23710195866036
C           -4.53540428428906       -4.26374926470964        1.16331745398851
C           -3.40503272254382       -1.66928617533296        1.42157851108052
C           -2.90149067691535       -0.37324858740804        1.50713407845728
C           -2.28940218423154        2.13188966713045       -1.46721071318026
C           -1.44472936684127        0.95807236689031       -1.79569577862291
C           -0.12234067113091        1.04321119005234       -1.14302722101098
N            0.50922608925053       -0.08934392696292       -0.65722214172625
C            1.88074311930559       -0.02328048560842       -0.23152127192560
C            2.85030200068737       -0.54318462274895       -1.31594137547124
C            4.27280544971801       -0.41597708853166       -0.86099823683136
C            4.98157696046557        0.75784354606605       -1.04394297061544
C            6.28573272563811        0.88307780751232       -0.57786966817379
C            6.90258746574333       -0.16397144684837        0.08593945901912
O            8.17957454926630       -0.15494117476254        0.56930190488958
C            8.96837237703672        0.98571628516885        0.34808039051777
C            6.18001831268378       -1.35887034381686        0.30111515041858
O            6.86056144644899       -2.33625292628819        0.96971413127310
C            6.22939986200903       -3.57298043167007        1.17520317746847
C            4.88138492802583       -1.46225112582260       -0.16797941176079
C           -0.15270201152661       -1.36149256568659       -0.65647501507363
C           -3.76296160272614        3.04827173171431        0.71142531311139
C           -4.32423240626388        3.14682821876226        2.12541752520010
C           -3.19704223762084        4.38906638028996        0.26772171130514
H           -4.57599072374865        1.00281013083279       -1.05449743992965
H           -6.69878714762817        0.33256041110105       -1.71854127929041
H           -6.92346039224038       -0.99057491493208       -2.88570572882619
H           -5.42892298485389       -0.03690569419335       -2.92365665732148
H           -4.81842621622731       -3.98417062475672        2.18074096051668
H           -5.11212156724759       -5.13589768365094        0.85875546186474
H           -3.46769742698036       -4.50574422803290        1.14460141690911
H           -3.06230883490409       -2.40802257144913        2.12919549457879
H           -2.20998354783351       -0.14524351208254        2.30299417395569
H           -3.16144812149888        2.17366132701303       -2.14506152712594
H           -1.64876134172826        2.97340043671878       -1.68742229182345
H           -2.02157138663420        0.06379529082462       -1.50446894961854
H           -1.35640139342253        1.03438910040188       -2.89758556036544
H           -0.77626912440323        1.33468932874261        1.31059736455240
H            0.54372355030413        1.91212798384616       -1.26243659643469
H            2.00723664615680       -0.58813617538457        0.69378216497908
H            2.14920514899700        1.00851876922391        0.00927202479597
H            2.69216999850587        0.05375322822484       -2.21199460450249
H            2.59928625574774       -1.58273603069460       -1.53240032117450
H            4.52042264470819        1.58621552674721       -1.55985718659207
H            6.82071872715838        1.80571729383016       -0.74567415853437
H            8.54273980742024        1.86558646295428        0.83943085334046
H            9.09695068751056        1.19294631618226       -0.72062715718145
H            9.94169042612668        0.76860121269598        0.78712986191277
H            6.96020930130401       -4.20197749839512        1.68337437293619
H            5.34335611623267       -3.46781750249799        1.80872798362296
H            5.94482448234738       -4.04761591497563        0.22938114153748
H            4.31778846880785       -2.36809570494446       -0.00890622609387
H           -0.30305598093275       -1.71322295343859       -1.68100764025672
H           -1.12558558558084       -1.27139946571806       -0.16875388586948
H            0.44364970958798       -2.09460112332252       -0.11315319269257
H           -4.63970405360470        2.79541907018544        0.09585744801680
H           -3.51596522574802        3.39331487191020        2.79263860321645
H           -4.77159806211524        2.21463345059399        2.45683859703717
H           -5.09456786457117        3.91514513543972        2.15815056231328
H           -2.35518101579359        4.59193711714871        0.92154316276879
H           -2.87327941742979        4.33522771469595       -0.77031384677560
H           -3.94016951093787        5.17493791405032        0.37287220400743
H           -0.59536828686909        2.90424897644104        2.92568948567170
