72
 energy: -5.251780120080 xtb: 6.6.1 (8d0f1dd)
N           -1.49911591462987        2.84378171373835        2.26092450387658
C           -1.54985118787346        2.13874271115831        1.21899235811299
C           -2.72637392989618        2.03654943249028        0.29508809103455
C           -3.31051450028070        0.63768306572446        0.39362596883527
C           -4.29143330695199        0.24934418798764       -0.52263962021136
C           -4.82507318488372       -1.02234503299325       -0.51419803745784
O           -5.77453528697757       -1.47797586871858       -1.37879141141064
C           -6.34598805538820       -0.57540087020419       -2.28976086682598
C           -4.37660121062454       -1.96132235268405        0.43995357291476
O           -4.95929976048137       -3.19185868852804        0.36544779497848
C           -4.63241427328532       -4.14107946265348        1.34568320538259
C           -3.42264671879121       -1.57185215085228        1.35976752541697
C           -2.89697186406776       -0.28319415261023        1.33689866419407
C           -2.24221497214346        2.22819881283988       -1.20164706885456
C           -1.30298807067850        1.12983022572184       -1.70399376403066
C           -0.01905345412091        1.12229153154567       -0.95560518131699
N            0.60639883236365       -0.05604111116663       -0.56904945435343
C            1.97878010529155       -0.03558179426490       -0.17693319461397
C            2.91838589761748       -0.54496800759739       -1.29259059337383
C            4.34296589277600       -0.43234348884314       -0.85190231709795
C            5.05474773426773        0.73677843311078       -1.04585804845063
C            6.36251259427750        0.85273860951278       -0.59515610883834
C            6.97501165096511       -0.19755907816931        0.06588784937093
O            8.25346618216753       -0.19657473457551        0.54225635708529
C            9.04454563777950        0.94293154108159        0.32761994467271
C            6.24950880910881       -1.38994713384614        0.28550284270760
O            6.93071294699523       -2.37109828612584        0.94400051835755
C            6.29459996020308       -3.60384608811561        1.15850973398718
C            4.94773940138351       -1.48662817096348       -0.16896710779656
C           -0.07347702626694       -1.31780460650975       -0.62731470251610
C           -3.84756269824080        3.06002097828509        0.60936427764414
C           -4.45589659848579        2.86354458648338        1.99252237915416
C           -3.34440443965835        4.49149942434199        0.48167413281106
H           -4.63800648200621        0.96004997959206       -1.25322675271272
H           -6.81259782920748        0.27607963988712       -1.78301193768165
H           -7.11247521740482       -1.13897454361462       -2.81864790709805
H           -5.60869879043228       -0.21129059321385       -3.01257190005285
H           -4.86685337546200       -3.78036025067308        2.35149298664677
H           -5.24742570778613       -5.01136987501221        1.12297472633391
H           -3.57482197986368       -4.42304547934667        1.30094851468937
H           -3.06628683408895       -2.26604815432147        2.10387230661436
H           -2.16216149579039       -0.01654822120577        2.08148637147390
H           -3.10196618696182        2.30164515888338       -1.88197067037108
H           -1.66986600898425        3.16156564277222       -1.31111181785777
H           -1.83963055721237        0.18013236631450       -1.59833415295226
H           -1.09956031822980        1.31804006453765       -2.77273176241085
H           -0.70141514548225        1.57014846082275        0.80051395812102
H            0.63175020885893        1.98252716334034       -1.01999549161586
H            2.10382448719285       -0.64737916156709        0.71915666331301
H            2.26657654689607        0.98610212636406        0.08422288255047
H            2.74641305944641        0.06423911256713       -2.17970092346913
H            2.66157322505409       -1.58004102698260       -1.52177595587196
H            4.59641955415790        1.56788101730780       -1.56040982621940
H            6.89940118566280        1.77074493547166       -0.77531715827286
H            8.62385274505215        1.82442955916667        0.82227054544197
H            9.17468746656589        1.15319836036066       -0.73995946301441
H           10.01374958595413        0.71292131137914        0.76789747827722
H            7.03081801091965       -4.22922824486203        1.66187903126942
H            5.41380722229404       -3.49741849846148        1.80048620057878
H            6.00191764291774       -4.08077809107496        0.21644264311487
H            4.38155252642172       -2.39095348873469       -0.00796592042990
H           -0.23988101112373       -1.64460001597006       -1.65979334754517
H           -1.04325205514330       -1.24862340290048       -0.12584561972627
H            0.53157668893722       -2.06644758729070       -0.11810824784262
H           -4.65633107865668        2.91051502983297       -0.11808638583184
H           -3.69359103285538        3.02290972394428        2.74408147342974
H           -4.85576326029541        1.86113992948324        2.10549887955234
H           -5.26791360797234        3.57291112698834        2.13914079010691
H           -2.54110263456452        4.64985349331687        1.19424426745178
H           -2.98830085974857        4.69632632041899       -0.52197599718366
H           -4.15296323370304        5.18266044495574        0.70093697835168
H           -0.61869663494542        2.80184417938901        2.77337937620990
