72
 energy: 58.293560559730 xtb: 6.6.1 (8d0f1dd)
N           -1.39624616344712        2.98082494133661        2.42134114115743
C           -1.54276840491682        2.04173227756996        1.57872862492064
C           -2.69788752200903        1.92575401210865        0.72023708698061
C           -3.25981475035442        0.58147645235814        0.66255744342586
C           -4.21999306337238        0.24959480741405       -0.31306048691569
C           -4.70968344558136       -1.02734861881657       -0.45340847212834
O           -5.59215043153563       -1.41500444023180       -1.42290180585410
C           -6.14222217559384       -0.43290806439217       -2.26218361621441
C           -4.27705946190505       -2.04210714209376        0.42354754645593
O           -4.81224131606792       -3.28302834246686        0.19497441355933
C           -4.50222113695679       -4.30271729395325        1.10352491720344
C           -3.39436666054944       -1.70855755784860        1.43730647033289
C           -2.89915068991181       -0.41667893886866        1.56030527728064
C           -2.27774445373337        2.14467096469099       -1.66754887788866
C           -1.48678448925635        0.91151459333496       -1.81816365416642
C           -0.14680810777949        0.99511342168250       -1.21896334846524
N            0.48150258840669       -0.08938145426422       -0.69601135952447
C            1.85026871845530       -0.01351345659764       -0.24843347384750
C            2.82624010596527       -0.54083312430230       -1.31986900588346
C            4.24858668717971       -0.40930407222261       -0.85855418200824
C            4.95618202585976        0.76497327785525       -1.04179876796265
C            6.25987742837896        0.89277026867292       -0.57337125436928
C            6.87813088926716       -0.15286275395415        0.09170032206568
O            8.15368813640085       -0.14166645928829        0.57544903481315
C            8.94244829146527        0.99968798627891        0.35364427120505
C            6.15664513970447       -1.34906045412621        0.30667858339936
O            6.83704853230053       -2.32459463154733        0.97661467263635
C            6.20766675159967       -3.56270641887426        1.18131473897741
C            4.85825789265827       -1.45427376391733       -0.16453350863393
C           -0.17834737206166       -1.36903204280094       -0.66571975077161
C           -3.73536282768390        3.05066170756382        0.75865498337737
C           -4.27999252022452        3.25106503124054        2.16503046480802
C           -3.14687656903156        4.34109546679143        0.20150138586681
H           -4.55420737366069        1.01642297133715       -0.98920403623484
H           -6.66019618196466        0.35109648288148       -1.69837011331509
H           -6.86046548557982       -0.94143300342132       -2.90387719590289
H           -5.36989521706691        0.01839763313403       -2.89242862382637
H           -4.80028321422252       -4.05057299310498        2.12378550582884
H           -5.06646672001613       -5.17358523336866        0.77207737303154
H           -3.43183192003272       -4.53392143287415        1.09410531766990
H           -3.06188145238532       -2.45953456409775        2.13670398611309
H           -2.22799743792904       -0.19621393432478        2.37474572368518
H           -3.16316294636039        2.17117369486900       -2.30427434999398
H           -1.60860514766275        2.95654981601418       -1.86588806103170
H           -2.09058560849216        0.06064565704344       -1.44432943001968
H           -1.42155373647353        0.90854748978046       -2.92368985811712
H           -0.80825857251422        1.24192502210753        1.47339475895033
H            0.50620390257438        1.88339267342913       -1.33616397040805
H            1.96935188388029       -0.56951690142393        0.68270162570968
H            2.11330695588947        1.02025563054046       -0.01318865346463
H            2.67574104269445        0.04874452777790       -2.22222299527611
H            2.57760727647120       -1.58239700492871       -1.52987927278771
H            4.49473068038730        1.59232843561003       -1.55901416127886
H            6.79329833373444        1.81668355882944       -0.73958738883206
H            8.51586022033488        1.87910718807296        0.84440015912584
H            9.07102470388685        1.20602527564585       -0.71516670028314
H            9.91612413208089        0.78469173120934        0.79286693021699
H            6.93781846100533       -4.19126137831462        1.69102049914124
H            5.32040732549744       -3.45807701609521        1.81290258717033
H            5.92562746583864       -4.03754634551678        0.23487521859059
H            4.29638317116306       -2.36126592046073       -0.00623073218518
H           -0.32566861756979       -1.73266838900121       -1.68554086259501
H           -1.15221377605908       -1.27066855967543       -0.18161145488549
H            0.41409234521266       -2.09566059189290       -0.11023717814317
H           -4.62774960570099        2.77265503433644        0.17613327818626
H           -3.45606509636520        3.51920480139150        2.80266312633462
H           -4.73384004469202        2.34594296342367        2.55668975149705
H           -5.03793152830781        4.03008180335720        2.15550640700486
H           -2.29159546173499        4.57069678897642        0.82899674998580
H           -2.84556152993159        4.19746473992068       -0.83914613214321
H           -3.87040206204179        5.15189859764885        0.26206149629672
H           -0.54828651319059        2.91679208008994        2.97236270093558
