  72
        -99.40302625
 N         -1.9581101210        2.5733047701        2.6131846267
 C         -1.8567261739        2.0545844793        1.4825587883
 C         -2.9689619095        2.0010655661        0.4700929369
 C         -3.6288623753        0.6265917702        0.5086295208
 C         -4.6724073926        0.3401790707       -0.3743230756
 C         -5.1755404758       -0.9421930748       -0.5114101948
 O         -6.1736236867       -1.3031922570       -1.3408928147
 C         -6.8553813177       -0.3132585937       -2.0748842891
 C         -4.5913726797       -2.0022682433        0.2320969097
 O         -5.0482300510       -3.2386199001       -0.0554825476
 C         -4.3327773401       -4.3530036613        0.4253987633
 C         -3.6135872292       -1.6984246542        1.1658482121
 C         -3.1435293452       -0.4000349131        1.3057787618
 C         -2.3222722770        2.1441124243       -0.9357061283
 C         -1.4513474108        0.9483944121       -1.3552965863
 C         -0.1086393946        0.9521112247       -0.7315501149
 N          0.5615140711       -0.1295547510       -0.3486804484
 C          1.9699346502       -0.0391676538       -0.0438746598
 C          2.8332270386       -0.3733233876       -1.2765646265
 C          4.2890481868       -0.2400830574       -0.9311413972
 C          4.9403038903        0.9750123106       -1.0669849633
 C          6.2735268461        1.1086593109       -0.7117469327
 C          6.9821613923        0.0275876837       -0.2072222700
 O          8.2727935820        0.0432326582        0.1728956046
 C          9.0087768956        1.2395319409        0.0592109959
 C          6.3221928095       -1.2247196959       -0.0661078798
 O          7.0834832461       -2.2231307544        0.4237485468
 C          6.5238305331       -3.5060386118        0.5726571035
 C          4.9885075290       -1.3333514751       -0.4260861982
 C         -0.0420619923       -1.4403417633       -0.3514393687
 C         -4.0147653107        3.1354018155        0.6752874461
 C         -4.8274990514        2.9241188090        1.9483029395
 C         -3.3910155573        4.5267338028        0.6941216164
 H         -5.0950828766        1.1325328261       -0.9691540331
 H         -7.3415774754        0.4100197927       -1.4134601546
 H         -7.6133478080       -0.8456210235       -2.6460733589
 H         -6.1882765177        0.2108636341       -2.7661322477
 H         -4.4736139032       -4.4953831204        1.5021420756
 H         -4.7389711400       -5.2110409428       -0.1050944109
 H         -3.2653433290       -4.2619325448        0.2045425981
 H         -3.2053531868       -2.4746395293        1.7938250601
 H         -2.3913202908       -0.1999354371        2.0546397697
 H         -3.1223629284        2.2524484650       -1.6670396984
 H         -1.7184072418        3.0505711160       -0.9656989119
 H         -1.9834818619        0.0187821793       -1.1607280250
 H         -1.3065668880        1.0220105441       -2.4411209014
 H         -0.9239616911        1.5902630278        1.0986236529
 H          0.4483884646        1.8777662966       -0.7512270146
 H          2.2090465892       -0.7299714080        0.7676777887
 H          2.2051297037        0.9738010554        0.2893556117
 H          2.5751538943        0.3157979584       -2.0825241196
 H          2.6152734498       -1.3895141225       -1.6079535644
 H          4.4137697869        1.8296593491       -1.4639053119
 H          6.7553684326        2.0644930869       -0.8356663645
 H          8.5788709432        2.0342399559        0.6765446766
 H          9.0689619788        1.5754744631       -0.9802441517
 H         10.0076606984        1.0027557490        0.4203885347
 H          7.3249781756       -4.1309901091        0.9621294299
 H          5.6918964886       -3.5009751469        1.2843458673
 H          6.1840230906       -3.9094724488       -0.3863133028
 H          4.4800333648       -2.2798658381       -0.3291635576
 H         -0.3122307518       -1.7512763075       -1.3625228972
 H         -0.9441508374       -1.4427600142        0.2649875160
 H          0.6615411295       -2.1610693153        0.0569759597
 H         -4.6993085009        3.0946881647       -0.1774108274
 H         -4.1955689097        3.0723435739        2.8170418733
 H         -5.2392404890        1.9172224540        1.9856345565
 H         -5.6454331853        3.6382906942        1.9869274535
 H         -2.7121946569        4.6308499974        1.5353652312
 H         -2.8576413349        4.7519990949       -0.2234938520
 H         -4.1800301450        5.2654823945        0.8051631616
 H         -1.1437213984        2.5654796093        3.2190633285
