72
 energy: 69.599240860826 xtb: 6.6.1 (8d0f1dd)
N           -1.59591883575225        3.06026714930189        2.22017462211349
C           -1.55682691017058        2.21572113583712        1.29751645349546
C           -2.67875788393292        1.97780488950007        0.33513080320536
C           -3.13750736742975        0.53104311520372        0.43457755578530
C           -3.92312628027191       -0.00088684586956       -0.56046862541784
C           -4.48450515233124       -1.31873654921845       -0.53138487993290
O           -5.17104631338280       -1.70945679748746       -1.49451195567338
C           -7.31304277946600        0.47692693932098       -3.24229863923712
C           -4.13288970891931       -2.10298329686302        0.65461816989625
O           -4.61994541168810       -3.37593827277581        0.69572742110487
C           -4.38478183323511       -4.14096039595902        1.84685967856041
C           -3.34656676434321       -1.54864529692359        1.64166516927496
C           -2.85328339066342       -0.24972462886962        1.55005358425606
C           -2.11189820619934        2.27433297383984       -1.07854831336735
C           -1.23513393369607        1.16256382735140       -1.69343919607095
C            0.09890870926028        1.04140899846275       -1.08056057871533
N            0.64652745547964       -0.07987440523684       -0.61330573840397
C            2.03379770136426       -0.09599710100544       -0.20841448221264
C            2.97510586374334       -0.59442514089224       -1.32378064098914
C            4.40645404952984       -0.47759161830641       -0.86907647812552
C            5.11690974191458        0.68889899716267       -1.07399674276550
C            6.42428716916413        0.81474891025953       -0.62401124459334
C            7.03982634335784       -0.22796110286689        0.04297746326962
O            8.30783411316176       -0.21902211360684        0.52762483063642
C            9.10134873037715        0.92609326751481        0.33369458329107
C            6.32146861025955       -1.42874236679437        0.25789537356195
O            7.00845193661746       -2.39771080940751        0.91724058886064
C            6.38559632601333       -3.63549158353789        1.15364018974479
C            5.02043911840624       -1.53437742098368       -0.19744490037142
C           -0.04401351492957       -1.34714672530642       -0.68250738987998
C           -3.93617599205889        2.86054961872356        0.59409455769008
C           -4.56759074252083        2.57002498138041        1.95593490614148
C           -3.65393625581099        4.35464141357492        0.46977637992452
H           -4.18553071654924        0.57874959825318       -1.43560168298780
H           -7.53119956199677        1.13439289503265       -2.43255103650999
H           -7.93592254208197       -0.35727963189359       -3.45084222834552
H           -6.52709277868126        0.72651584444289       -3.89915199557455
H           -4.81887678288065       -3.68723247164250        2.74498396304992
H           -4.86585567203346       -5.10053049343285        1.67410119030253
H           -3.31693091379372       -4.31854325724667        2.03091201220538
H           -3.10157843893475       -2.11307901195557        2.52837943460999
H           -2.27954812803377        0.14789619319549        2.37311987744545
H           -2.95400528801146        2.42566462487746       -1.75210368241509
H           -1.54148666646343        3.20475998393771       -1.03776020252937
H           -1.78085460329224        0.22123818855427       -1.67558011329386
H           -1.08133110637348        1.44518785181169       -2.74193283591987
H           -0.66734678659900        1.59878027474257        1.07098899405811
H            0.69768359450091        1.93558047820092       -1.00903502078691
H            2.13573922637640       -0.74412539323648        0.66505497585360
H            2.33695584781318        0.91482326967904        0.07662285540429
H            2.82153320265415        0.01504594401889       -2.21651537606091
H            2.74195303407890       -1.63107138866440       -1.57058283709519
H            4.66211091623280        1.51630690361926       -1.59774676778092
H            6.95245586324737        1.73730730942651       -0.80325599116705
H            8.67399751418966        1.80356632200809        0.83003050378950
H            9.24537843187609        1.14339344999435       -0.72954987274611
H           10.06387532815505        0.69112736721678        0.78564023069273
H            7.12832689234831       -4.23979372334798        1.67209377329578
H            5.50094124739251       -3.52833315264001        1.79054870468985
H            6.10571782897785       -4.13258193251483        0.21901971996979
H            4.46665709068593       -2.44772281903272       -0.04406304713975
H           -0.24102427081770       -1.63794621961482       -1.71591019501252
H           -0.99590092338777       -1.28709914909403       -0.14666891370645
H            0.57276048399726       -2.11393804798305       -0.22096549368527
H           -4.66612024097513        2.57446497885995       -0.17142217085045
H           -3.87562307095498        2.82406096049261        2.75276457671575
H           -4.84676879346866        1.52371590897617        2.04423047012993
H           -5.46749966263195        3.16897157210097        2.07376000862009
H           -2.90963654519882        4.65250769225456        1.20049070411207
H           -3.30495612716590        4.61752765641431       -0.52525698599097
H           -4.56663555281496        4.91188010126467        0.66326910120681
H           -0.77463492254662        3.14391258435439        2.81256094451339
