72
 energy: 36.774884020402 xtb: 6.6.1 (8d0f1dd)
N           -1.55997975649011        2.91286334420302        2.25047209561416
C           -1.55153260331301        2.17718953799909        1.22932987769513
C           -2.71481434017748        2.01773174774766        0.29103470953555
C           -3.23266043169175        0.59423084578283        0.37025339046949
C           -4.12638261201130        0.13616549970321       -0.59377465351916
C           -4.73366245511073       -1.10337541814257       -0.63885223993410
O           -5.65109436244065       -1.22803397225462       -1.76484897803821
C           -6.63328281273830       -0.17271174619942       -2.59851186600126
C           -4.32834812725570       -2.00307911514483        0.45987352365868
O           -4.83765483382667       -3.27305909396160        0.51927210929886
C           -4.53362120182359       -4.11664340011075        1.60792454098499
C           -3.44082876259340       -1.53293360602522        1.44228924475598
C           -2.89458586510905       -0.25599553507035        1.40189021387387
C           -2.15992485158272        2.28592471583969       -1.13188269968423
C           -1.24729012640643        1.17734761601236       -1.69240744484751
C            0.06621113505867        1.09135544104734       -1.01459763206439
N            0.65417843559834       -0.08306673603024       -0.59365950310152
C            2.02015106781709       -0.07170626214322       -0.18402818328674
C            2.96441546568913       -0.56774947671347       -1.30256025641144
C            4.38621635658499       -0.45573535097913       -0.85900657190229
C            5.09967204647220        0.71166755878894       -1.05838249294816
C            6.40832592056274        0.82920005964741       -0.61268773388285
C            7.02162444052381       -0.21997271725048        0.04895338847401
O            8.29682982927449       -0.21587000736360        0.53004004356578
C            9.08694812575654        0.92655955383187        0.32729452902349
C            6.29857383507050       -1.41396693068201        0.26801173306133
O            6.98136968854953       -2.39154028652130        0.92867512577782
C            6.34979052011578       -3.62412455305594        1.15364018840706
C            4.99562310786369       -1.51265049240864       -0.18162362145749
C           -0.04160711236914       -1.33378855497355       -0.65518860331980
C           -3.90480803674944        2.97399526037261        0.58786138676437
C           -4.53500383390749        2.67923597146175        1.94872379236689
C           -3.51766476661917        4.44826304190715        0.51189792329440
H           -4.42552467066703        0.79094259662011       -1.39567648263773
H           -7.11454507889610        0.64600322843073       -2.06500642105576
H           -7.44643317147458       -0.77124265438320       -3.03356538093194
H           -6.05118366939082        0.20747859408589       -3.42429165691615
H           -4.85639419459675       -3.69509471287949        2.56543927666146
H           -5.09384113097750       -5.03418023584381        1.42765500401891
H           -3.46754712179292       -4.36682443029396        1.67010229065389
H           -3.13629926067315       -2.15449633633649        2.27919003530186
H           -2.22690435253027        0.07988601007879        2.18506236559254
H           -3.00203187991358        2.41803648578908       -1.81356390487644
H           -1.60143423692069        3.22194622427308       -1.11927538842036
H           -1.77613143146071        0.22697378593173       -1.65054519693498
H           -1.06549181901205        1.40981797977566       -2.75246950649884
H           -0.67202616489442        1.62969431697006        0.85511681134932
H            0.68749581495489        1.97002359592319       -0.99628296310522
H            2.14659079135370       -0.70654896203838        0.70114035878187
H            2.30711994733756        0.94638576925587        0.08748630685370
H            2.79335778448868        0.04198998357910       -2.19140058365357
H            2.71357144377568       -1.60265592413182       -1.54291199089400
H            4.64076887408186        1.53879766957584       -1.57905112794161
H            6.94198044648441        1.74871393189160       -0.79391361405488
H            8.66426796670706        1.80657186018146        0.82428184775128
H            9.22346444877770        1.14311525922831       -0.73798831412253
H           10.05314844511852        0.69454263691762        0.77242693229081
H            7.08912416675923       -4.24025532166567        1.66362956994373
H            5.46761526405972       -3.51726004132015        1.79401201946276
H            6.06112555746341       -4.11130879523644        0.21582544821534
H            4.43481040530636       -2.42202689785376       -0.02718828965042
H           -0.23007151469215       -1.64736207933148       -1.68832345871035
H           -1.00227595167408       -1.26697429425461       -0.13666253860934
H            0.56198941972473       -2.09405686021643       -0.16375067348741
H           -4.66271471597514        2.77717898518904       -0.18167766857574
H           -3.81324207641289        2.86111633581768        2.73693294030803
H           -4.86701811969650        1.64609374235588        2.00954790521627
H           -5.39637520223422        3.32529569987792        2.10302711703658
H           -2.74352241941109        4.66315392119660        1.24019913256532
H           -3.16236985236463        4.72069825890882       -0.47851095645663
H           -4.38736924939723        5.06079022611103        0.73953471678740
H           -0.68689358065497        2.95922951663162        2.76946880244494
