72
 energy: -0.503461338294 xtb: 6.6.1 (8d0f1dd)
N           -1.51612113711669        2.82238853836943        2.24336753648899
C           -1.55115979066135        2.15752592424013        1.17728419348569
C           -2.73620926014827        2.04477392881266        0.26166953917099
C           -3.28580029890391        0.62863610524179        0.34254767045848
C           -4.23732323027270        0.20535871497160       -0.58510200466639
C           -4.80943481598521       -1.05227691081927       -0.58748960712386
O           -5.78295985983534       -1.38629932172000       -1.53423149831051
C           -6.48067679021816       -0.44721240671467       -2.40199030417351
C           -4.37103424410651       -1.96461363834592        0.43325578474921
O           -4.93549217641205       -3.20813094154056        0.44675636019460
C           -4.61574307018207       -4.10623592623361        1.48163670679711
C           -3.42874089037647       -1.53976782415413        1.36898803930670
C           -2.88820394110659       -0.25971503297091        1.32269087624013
C           -2.18425311611122        2.29530119864452       -1.16616327510086
C           -1.25785434253399        1.17960339632866       -1.67559173157692
C            0.02493805772909        1.12486715289628       -0.93282235442210
N            0.63977003652809       -0.05596982629812       -0.56502530071963
C            2.00896917854444       -0.04568859110174       -0.16569545590568
C            2.94517453495771       -0.55001989019760       -1.28643462648085
C            4.36889097883467       -0.44112578341453       -0.84541779265003
C            5.08458989769997        0.72407437523990       -1.04814188150349
C            6.39468302374048        0.83739890064023       -0.60661773684451
C            7.00622444515598       -0.21318499763744        0.05366275601728
O            8.28327237283161       -0.21296442540156        0.52817589021062
C            9.07554015567357        0.92768502081309        0.32212262571931
C            6.28073105243009       -1.40526579630112        0.27525305715902
O            6.96318665682428       -2.38612875848438        0.93029395618566
C            6.32844629808147       -3.61801236044817        1.15316682190156
C            4.97647676064780       -1.50012075968634       -0.17001608677535
C           -0.04685669306017       -1.31311517018751       -0.63058457881279
C           -3.88446848679635        3.03938668541795        0.58438980476427
C           -4.51148932940636        2.73950868530431        1.94507196931268
C           -3.44070146277361        4.49936407889993        0.53470680443146
H           -4.57252170171658        0.89075410671891       -1.34488567099927
H           -6.95341484331603        0.39804813514528       -1.89715716053818
H           -7.27629719210872       -1.02687764058580       -2.88341732081373
H           -5.81603715199342       -0.08535729097906       -3.18564761434068
H           -4.87309088675538       -3.70752466010940        2.46819619225585
H           -5.21922873995406       -4.99307938306784        1.29139434438410
H           -3.55720141238593       -4.38904876753174        1.47275502856871
H           -3.09223626417371       -2.19497066443407        2.16365739058557
H           -2.17197994874186        0.04398198191376        2.07373623618671
H           -3.01890357074955        2.39721667595261       -1.86024112988081
H           -1.63362438980357        3.23704934275224       -1.17246248342694
H           -1.79233226520017        0.23171117624523       -1.63174361938658
H           -1.02881868773460        1.38785877177490       -2.73014649312501
H           -0.68069429475035        1.64257352444735        0.71794266173982
H            0.66075987474370        1.99026391749196       -0.96272070679636
H            2.13100600412824       -0.67947584096692        0.72005182392690
H            2.30220131111359        0.97198864470488        0.10214043568582
H            2.77577477098182        0.05770507741501       -2.17684807365556
H            2.69249035626912       -1.58506881288629       -1.52277621664250
H            4.62845591158547        1.55329539267740       -1.56799777326301
H            6.93107869393178        1.75440015919183       -0.79139440608466
H            8.65590548799920        1.80897982164094        0.81933331864786
H            9.20933356669778        1.14194259239129       -0.74381546885746
H           10.04210122716275        0.69272187853044        0.76493413196531
H            7.06765302115813       -4.23826399276719        1.65805584309036
H            5.44879005994786       -3.51093802441157        1.79710805977838
H            6.03528825349056       -4.10008506312414        0.21415082396778
H            4.41388110629392       -2.40786284974606       -0.01343036478433
H           -0.22326813674753       -1.63105428273176       -1.66476558743498
H           -1.01144211623647       -1.25099541162897       -0.11908216630708
H            0.56035943088204       -2.06748386871508       -0.13465499120566
H           -4.65440843147855        2.89023371765081       -0.18292407066787
H           -3.77820012213305        2.88635139587247        2.73065127137563
H           -4.87163069993541        1.71478945932525        1.98969453272839
H           -5.35206085982744        3.40783287182483        2.11765655698543
H           -2.65345223693465        4.67637761711983        1.26034715672210
H           -3.08498703021047        4.77995066359785       -0.45348949371403
H           -4.28555881473915        5.13868880944135        0.78097573742649
H           -0.62998454868880        2.83759589658594        2.74333867407720
