72
 energy: 17.457753844475 xtb: 6.6.1 (8d0f1dd)
N           -1.54192427729699        2.87688966222123        2.24742855837447
C           -1.55033801447160        2.16761273534084        1.20840556351356
C           -2.72340809999625        2.02772615543823        0.27906252912313
C           -3.25503465292000        0.60682859474597        0.35746817369502
C           -4.17378048214540        0.16264455781871       -0.59277475185104
C           -4.77357193821050       -1.08119442645783       -0.63092410588282
O           -5.74184000844228       -1.26629258375162       -1.69609674343500
C           -6.57119643139238       -0.27684021390909       -2.51615514204278
C           -4.34939807493419       -1.98851492436963        0.43945027922939
O           -4.87795038919177       -3.24894971249240        0.48703544915465
C           -4.56585518246481       -4.11234662560404        1.55638996097934
C           -3.43904102567443       -1.53645250344649        1.40792195042677
C           -2.89275868043953       -0.25888703558083        1.36870365826142
C           -2.16977186449570        2.28920318445634       -1.14577198014199
C           -1.25129801015648        1.17786132242815       -1.68594001785663
C            0.05092824065026        1.10363421791468       -0.98226501541635
N            0.64920813342540       -0.07418159800426       -0.57710145278204
C            2.01661974058455       -0.06163956403878       -0.17580429838420
C            2.95691075982309       -0.56065886026499       -1.29580459529907
C            4.37940619773138       -0.44988753778312       -0.85365423058586
C            5.09382875593453        0.71656433598307       -1.05430082667969
C            6.40305317170472        0.83239312741284       -0.61012228965506
C            7.01560573874062       -0.21737380811429        0.05098078371542
O            8.29129403979096       -0.21482890860862        0.52976433517413
C            9.08250620397977        0.92674365905600        0.32562681405226
C            6.29155091930749       -1.41042771500305        0.27101186538065
O            6.97401103048608       -2.38924840356854        0.92986215946765
C            6.34132388669130       -3.62158583082056        1.15386304020957
C            4.98806705388441       -1.50755270864199       -0.17702418168482
C           -0.04341062007904       -1.32620501026521       -0.64492414941001
C           -3.89659640890573        2.99999036972400        0.58571601073121
C           -4.52591862063246        2.70344081543940        1.94640568345602
C           -3.48669552641378        4.46878088332510        0.52083693500620
H           -4.48476103208438        0.83109205535823       -1.37748362586509
H           -7.05555224511532        0.54967596907523       -1.99519579962075
H           -7.38058953049956       -0.86824365192209       -2.97109718795924
H           -5.95940114252845        0.09536922643720       -3.32807471320199
H           -4.86214919244178       -3.69817139791250        2.52544930921837
H           -5.14330971806854       -5.01845732626959        1.37347164160158
H           -3.50201196750834       -4.37526888706010        1.58983834828288
H           -3.11895085438346       -2.17111247958136        2.22970470134296
H           -2.20590044880431        0.06481717097787        2.14062443288776
H           -3.00942319736487        2.40862152672178       -1.83218356809876
H           -1.61495237023515        3.22795309946751       -1.14163628464849
H           -1.78280646160130        0.22870568209586       -1.64383799288587
H           -1.04964795291187        1.40050089827947       -2.74418277631309
H           -0.67488928508961        1.63299587615239        0.80049109550863
H            0.67642423417002        1.97863407326224       -0.98340984214554
H            2.14163888250400       -0.69564514008075        0.70963760592118
H            2.30446136915459        0.95680841732042        0.09340879453296
H            2.78620229841436        0.04814887301014       -2.18528341273604
H            2.70501877174410       -1.59562198624540       -1.53463130556591
H            4.63585290611437        1.54454530310554       -1.57435901531554
H            6.93782191811165        1.75102868496667       -0.79226861740489
H            8.66127034309983        1.80740882520904        0.82264597432807
H            9.21794024703424        1.14234534377171       -0.73993788218992
H           10.04884605964965        0.69347208896340        0.76973979844726
H            7.08061497866471       -4.23941819461361        1.66177083225439
H            5.46013668616413       -3.51479034520405        1.79563025434846
H            6.05093681317585       -4.10672588555651        0.21553232411278
H            4.42648599591391       -2.41620789050830       -0.02153194071517
H           -0.22737996855449       -1.64057398945190       -1.67887061248341
H           -1.00581039588165       -1.26034333184237       -0.12983038150479
H            0.56126059489633       -2.08425975002953       -0.15184012449981
H           -4.65968173839337        2.82249862348145       -0.18307243401160
H           -3.79894418348956        2.87031900768949        2.73327012990294
H           -4.86972753371106        1.67375445755409        2.00033605796475
H           -5.37864761914058        3.35901250899849        2.10851561923258
H           -2.70690007693358        4.66750026213199        1.24806241450752
H           -3.13127798734203        4.74467300163484       -0.46866137978125
H           -4.34648932584852        5.09221569620740        0.75642679774937
H           -0.66432977762105        2.91062370479804        2.75955175863390
