72
 energy: -3.615325730995 xtb: 6.6.1 (8d0f1dd)
N           -1.50768863729998        2.80499422127089        2.24142175489336
C           -1.55093211564935        2.15536878141400        1.16681796784061
C           -2.73986464664723        2.05003141159323        0.25579539321337
C           -3.29570839540145        0.63537276403238        0.33714790963386
C           -4.25899803386222        0.21934279662049       -0.58230126876853
C           -4.82194948780719       -1.04211595245493       -0.56936438478652
O           -5.79416379918569       -1.42233070489400       -1.47868409435198
C           -6.45220363169996       -0.50229417955596       -2.36558196612512
C           -4.37951826361155       -1.95671544769290        0.43544699312732
O           -4.95382093833341       -3.19453075950214        0.43393761816373
C           -4.63176280701221       -4.10404640168408        1.45690031374528
C           -3.42606267795813       -1.54086032436895        1.35750596011710
C           -2.88739942823368       -0.26001303871221        1.30719654682937
C           -2.18853207034524        2.29737502908613       -1.17288655627363
C           -1.25980524414764        1.17971743910306       -1.67207070459059
C            0.01620988676562        1.12904631907998       -0.91598180310492
N            0.63719408826216       -0.05132656241343       -0.56365171558635
C            2.00624681238707       -0.04049968816455       -0.16287915421216
C            2.94138412308090       -0.54649006224953       -1.28343861810143
C            4.36541604023448       -0.43828881508045       -0.84240586530602
C            5.08154119046568        0.72650843107627       -1.04589914560231
C            6.39197596980167        0.83899929609876       -0.60541735000443
C            7.00312181447510       -0.21185582682020        0.05470103474234
O            8.28065579861696       -0.21246804170566        0.52767319694816
C            9.07324609879359        0.92790985425496        0.32106149047165
C            6.27711309623362       -1.40378086220536        0.27675956103719
O            6.95963174882055       -2.38529489485784        0.93032830502607
C            6.32412373772733       -3.61699004933836        1.15280844639344
C            4.97256946000766       -1.49781484371385       -0.16749310619489
C           -0.04831230823812       -1.30915175185870       -0.62660369357195
C           -3.87961691961166        3.05228700148816        0.58400058924921
C           -4.50630154098935        2.75152638332874        1.94450724475607
C           -3.42508110913037        4.50941535897799        0.53944265349859
H           -4.60069094130878        0.90945960817767       -1.33519846027417
H           -6.91923210573604        0.35019238599899       -1.86622886820060
H           -7.24133760563224       -1.08063316735180       -2.85366827096648
H           -5.76732604706226       -0.14598644909355       -3.13712216066770
H           -4.87654520702936       -3.70987005534199        2.44853702918830
H           -5.24375512412593       -4.98430394013909        1.26435016842656
H           -3.57512709096153       -4.39270566735590        1.43400951532481
H           -3.08422258997847       -2.20287724332194        2.14222166376782
H           -2.16295037073180        0.03723014985023        2.05193118521839
H           -3.02146892897758        2.39290435518018       -1.86950705528218
H           -1.63972916066412        3.24036781450758       -1.18294346106235
H           -1.79575209525344        0.23235450667442       -1.62844441907094
H           -1.02175733587439        1.38438008674877       -2.72471454277099
H           -0.68197357701980        1.64595197204005        0.69111904384777
H            0.65596271940029        1.99139060625635       -0.95562878043255
H            2.12694542719322       -0.67398467861491        0.72316989563368
H            2.30149816046506        0.97691595971777        0.10484373297241
H            2.77245166657910        0.06109585016644       -2.17413227853304
H            2.68823008434765       -1.58148661747052       -1.51893069548552
H            4.62611892982241        1.55620951678805       -1.56577915893514
H            6.92889295729520        1.75543144975746       -0.79118945567943
H            8.65414392941376        1.80937076621320        0.81839841664154
H            9.20651168056902        1.14173371168443       -0.74498322277669
H           10.03986717582389        0.69237648809554        0.76345031714637
H            7.06330653591143       -4.23805117663093        1.65664667662604
H            5.44500808496749       -3.50978090373670        1.79753913267865
H            6.03001541697379       -4.09795045815039        0.21352946237068
H            4.40957043797715       -2.40525604931676       -0.01058059217961
H           -0.22223472388596       -1.62830824176722       -1.66061740821289
H           -1.01352729767996       -1.24763484908373       -0.11596893759691
H            0.55974106000626       -2.06185276526986       -0.12934154523139
H           -4.65151382243194        2.91268393702334       -0.18284348157457
H           -3.77153831828199        2.89161893805949        2.73020943957312
H           -4.87260523851830        1.72878875356433        1.98591690059819
H           -5.34248470253820        3.42441252424440        2.12016794899090
H           -2.63558353144758        4.67987702806812        1.26454497721212
H           -3.06969449370858        4.79214433016810       -0.44830700833424
H           -4.26505609668538        5.15354072438121        0.78957488561537
H           -0.61884855505342        2.81388691059634        2.73778458104814
