72
 energy: 70.184685302802 xtb: 6.6.1 (8d0f1dd)
N           -1.60159018428859        3.06062282494957        2.22161322715895
C           -1.56397577209596        2.21556972187553        1.30008312338872
C           -2.68210442239896        1.97773181900030        0.33396763022825
C           -3.14448787107472        0.53344160738896        0.42312863788087
C           -3.93083641732828        0.01101288063860       -0.57682767042966
C           -4.50579267428900       -1.29884161464125       -0.54570395462798
O           -5.20232558205269       -1.65389234992512       -1.51680926932056
C           -7.25287826070835        0.42708911100560       -3.17912990569910
C           -4.15464499990224       -2.09461101531498        0.63620658816998
O           -4.64616472223885       -3.36691994135874        0.67727382874516
C           -4.40242182261991       -4.14006478426228        1.82089800540787
C           -3.36169411660496       -1.54788666156712        1.62341249953986
C           -2.86533878059856       -0.25024763285231        1.53640395333381
C           -2.11266685924561        2.27576642865127       -1.07685366284404
C           -1.23472131001442        1.16406829654494       -1.69170995496529
C            0.10459167918706        1.03872824633537       -1.09167682326760
N            0.64509082162278       -0.07963580858718       -0.61333997205591
C            2.03354521923720       -0.09759402770115       -0.21154663545211
C            2.97770879304171       -0.59477287962791       -1.32563510173167
C            4.40867368680309       -0.47812721129014       -0.87131652238481
C            5.11881530750198        0.68919065277230       -1.07384278167516
C            6.42645854112462        0.81427366856627       -0.62326143754718
C            7.04259194924725       -0.22877734123768        0.04305781610486
O            8.31049696580104       -0.21945714054049        0.52840256242733
C            9.10305380168159        0.92638451959799        0.33554351860029
C            6.32379686453734       -1.42971798864103        0.25763449504730
O            7.00823929647977       -2.39841831036890        0.91966609743401
C            6.38322722890451       -3.63467783603451        1.15425263614735
C            5.02228338122876       -1.53419362602441       -0.19806302485293
C           -0.04307735849841       -1.34789691130056       -0.68500149596465
C           -3.93401246634459        2.87191671499495        0.59292527503134
C           -4.56735618882821        2.58153978788131        1.95392111581367
C           -3.63963041416879        4.36472121787518        0.47434647187015
H           -4.19885600654751        0.60032538010922       -1.44615091671581
H           -7.48637872191669        1.09302712022832       -2.38837970528904
H           -7.88844651805104       -0.38978338132678       -3.40153654884973
H           -6.47721471948635        0.67514071559300       -3.84464023230726
H           -4.82382112241657       -3.68862295648552        2.72600249509818
H           -4.89329004648146       -5.09481099068851        1.64718989213762
H           -3.33330981050304       -4.32679639791745        1.99040106237298
H           -3.11896024574007       -2.11441535301045        2.50890529171350
H           -2.29626640762666        0.14419922881824        2.36234151965484
H           -2.95494564166367        2.43122794976203       -1.74942448624025
H           -1.54460818734819        3.20544896685614       -1.03967748159075
H           -1.77667672544505        0.22112535576311       -1.67700173626321
H           -1.08063592620702        1.45053031531794       -2.73765933282391
H           -0.66905803972779        1.60817713087772        1.07504447252566
H            0.70443790040946        1.93205251744365       -1.01107781709757
H            2.14015399231834       -0.74550733836323        0.66165968384839
H            2.33735388019743        0.91223633207841        0.07363590415817
H            2.82148397602119        0.01692728600635       -2.21604980963651
H            2.74426556788873       -1.63114987527895       -1.57362229722255
H            4.66171864439717        1.51603973156605       -1.59660745371476
H            6.95418652131947        1.73731826541058       -0.80148179673114
H            8.67469114752024        1.80302826912375        0.83234286707978
H            9.24600541983908        1.14418632041595       -0.72778515956138
H           10.06576122490615        0.69236826429718        0.78735049274720
H            7.12449043063644       -4.24088412015686        1.67238349643452
H            5.49849645390556       -3.52725415472284        1.79072485699563
H            6.10194320340462       -4.13041306145259        0.21926006401537
H            4.46809034783740       -2.44743551370635       -0.04550477197422
H           -0.23783306347037       -1.64118708541830       -1.71822547455942
H           -0.99641752801073       -1.28897629764061       -0.15125296293454
H            0.57087568843914       -2.11378960557480       -0.21691060081710
H           -4.66805172034879        2.59684534516223       -0.17388880597123
H           -3.87264835079947        2.82414907084449        2.75031072107135
H           -4.85195209619925        1.53666300532176        2.03897054785589
H           -5.46248222412151        3.18656553734710        2.07758977322871
H           -2.89241866988710        4.65099668979731        1.20570783296206
H           -3.28866340791418        4.62884596825404       -0.51965655232138
H           -4.54707875487688        4.92976389098352        0.67181144441167
H           -0.78105838582540        3.14495731888151        2.81558211120985
