72
 energy: 54.919646371699 xtb: 6.6.1 (8d0f1dd)
N           -1.56685037400820        2.92500914311388        2.25195564101929
C           -1.55454887558935        2.18870287984290        1.23704652003197
C           -2.71103535467341        2.01315694108145        0.29741056281089
C           -3.21960007911762        0.58485882008281        0.37917595957909
C           -4.09180254139004        0.11894112862380       -0.59135236287372
C           -4.69262252273323       -1.14078324558081       -0.63634991971860
O           -5.51747375816052       -1.30746180195432       -1.69413359875819
C           -6.76302032453535       -0.04868589623096       -2.71754915667519
C           -4.29990975975739       -2.01525339662475        0.48806362999576
O           -4.81237326042728       -3.28849831600565        0.53975570685446
C           -4.51750306333007       -4.12066978339816        1.63386565891152
C           -3.43046442966519       -1.53523344658597        1.46968751747664
C           -2.88805490344150       -0.25547675673966        1.42256058707995
C           -2.15243057331755        2.28505667944277       -1.12370846427575
C           -1.24634867165452        1.17507573180069       -1.69246437484590
C            0.07770087752856        1.07346588571604       -1.03552849743501
N            0.65191033509847       -0.07786139484305       -0.61265002462340
C            2.02264718400227       -0.07392463251372       -0.18828618601000
C            2.96425388124304       -0.57055995446012       -1.30451534186461
C            4.38987345656197       -0.45786672535671       -0.85908624636838
C            5.10204658245950        0.70862165786190       -1.06037940850140
C            6.41146489393316        0.82707016063357       -0.61410486796951
C            7.02563208109798       -0.22101795675613        0.04822038378139
O            8.29743396860735       -0.21597412154802        0.52967654639659
C            9.08934755883922        0.92690031000175        0.32821617510952
C            6.30280001655942       -1.41648558289143        0.26672053155521
O            6.98417762517996       -2.39152945403497        0.92766717559926
C            6.35389538121374       -3.62543296740886        1.15401226610481
C            4.99904761623486       -1.51502035071830       -0.18378662834022
C           -0.04259658274704       -1.33644813509777       -0.66067869911834
C           -3.90902400268228        2.96173124936495        0.58823171232497
C           -4.53925900821905        2.66727944032098        1.94935623715408
C           -3.53329830957680        4.43852850790413        0.50713162085162
H           -4.39612139340455        0.76370070125497       -1.40214714422100
H           -7.17919078710461        0.72780890539492       -2.11241330480655
H           -7.52045619879089       -0.71486440658748       -3.09432631936186
H           -6.10040889304645        0.27179312381537       -3.48444509944560
H           -4.85215308693401       -3.69349175227966        2.58531031370026
H           -5.06969728749772       -5.04316195060553        1.45547144779520
H           -3.44976140858096       -4.36344941913496        1.71009047577850
H           -3.14139729968632       -2.14797127597479        2.31497517580748
H           -2.23351684130112        0.08748191816426        2.21213937132997
H           -2.99498191676169        2.41894298600432       -1.80369654423033
H           -1.59389853138931        3.22103016056113       -1.10996013426684
H           -1.77711759914098        0.22640072311404       -1.65347968768542
H           -1.06758434457950        1.41335632418766       -2.75086284322072
H           -0.67091927849154        1.62967139568113        0.88294596102505
H            0.68992758377983        1.96267587788792       -0.99858086575032
H            2.14475044170312       -0.71060718117115        0.69511979368263
H            2.31098240176033        0.94252985167970        0.08560997731076
H            2.79751073831115        0.03849255392057       -2.19483416965456
H            2.71757666925658       -1.60598859345018       -1.54663474698954
H            4.64350409706186        1.53588454010508       -1.58119218086934
H            6.94390081432534        1.74727892509265       -0.79479900986170
H            8.66604055014603        1.80617757648702        0.82540421364260
H            9.22639237550378        1.14326989445391       -0.73678325742202
H           10.05501539910074        0.69460073010173        0.77401410491827
H            7.09358191766544       -4.24007826391059        1.66494189247873
H            5.47163209372199       -3.51833520114375        1.79391180592651
H            6.06650406168479       -4.11348290159172        0.21650397598079
H            4.43926982825136       -2.42497528962006       -0.02933567201841
H           -0.23160072188964       -1.64925785464927       -1.69179111939769
H           -1.00084162084947       -1.26913861106034       -0.13959119421727
H            0.56299729171552       -2.09541387259368       -0.17000475716153
H           -4.66404320166456        2.75408794422614       -0.18049323020655
H           -3.82085610778261        2.85631055291635        2.73888132781036
H           -4.86503521139958        1.63275313737156        2.01254695506310
H           -5.40513353655377        3.30800547994024        2.10033697751967
H           -2.76235046955552        4.66226221254435        1.23618934228609
H           -3.17853099771456        4.71000325719131       -0.48380264084165
H           -4.40760521173799        5.04543851091937        0.73114370344255
H           -0.69790065194740        2.98403068569481        2.77580519719504
