72
 energy: 65.425576561070 xtb: 6.6.1 (8d0f1dd)
N           -1.58158078712195        2.96215064195817        2.25156668197028
C           -1.55757518212823        2.20002199270455        1.25711580945542
C           -2.70209495043118        2.00346789017141        0.30954262191353
C           -3.19556592050792        0.57002209923568        0.39259970759263
C           -4.03356363206295        0.08839193506902       -0.59037025787032
C           -4.62578998571383       -1.19111569798714       -0.61435681437031
O           -5.40545081817730       -1.39558164790783       -1.61792494838649
C           -6.91602075969135        0.10772879038018       -2.86573996019207
C           -4.25612398919647       -2.03963759594717        0.53399017872412
O           -4.76582159025683       -3.31419757124953        0.57951638489745
C           -4.48450018739562       -4.12752350304850        1.68749089014127
C           -3.41434180755663       -1.53835837060999        1.51739284852979
C           -2.88318623905219       -0.25392742626832        1.45840695392036
C           -2.14056390669074        2.28258410002442       -1.10925129108979
C           -1.24170431416179        1.17273649564794       -1.69537319488841
C            0.09120083515566        1.05710713060513       -1.06286018973164
N            0.65013995651743       -0.07576358692588       -0.62814413148280
C            2.02524516842119       -0.08098278099849       -0.19636074244103
C            2.96867478911235       -0.57722679730584       -1.31071976766090
C            4.39603202551396       -0.46344543246330       -0.86286376415465
C            5.10741170966910        0.70330934583210       -1.06431771783433
C            6.41662579377084        0.82336486283431       -0.61669808573420
C            7.03205900452598       -0.22352174945516        0.04674477572735
O            8.30189020726666       -0.21693500663766        0.52972899514838
C            9.09393108897652        0.92681743530286        0.33026706521140
C            6.30985435314627       -1.42058215560881        0.26401801508297
O            6.99104093276155       -2.39334069342989        0.92592803317407
C            6.36220271148641       -3.62803619459712        1.15405363890056
C            5.00617127927731       -1.52031735090880       -0.18792752126639
C           -0.04173332144825       -1.34048433726098       -0.67089697026723
C           -3.91648548169012        2.93652691628151        0.58989195970337
C           -4.54761325279539        2.64339489749612        1.95109523457734
C           -3.56393818985606        4.41835032553003        0.49820649585885
H           -4.33444724769167        0.71618647406857       -1.41862091881034
H           -7.27152467672304        0.84525419954620       -2.19340463019483
H           -7.62887205245344       -0.61374374491083       -3.18645078771708
H           -6.20019599982493        0.39119491626840       -3.58822650178174
H           -4.84424612382396       -3.69207871551965        2.62624786061038
H           -5.01916907406312       -5.05999603931671        1.51115637069776
H           -3.41493865144848       -4.35426823287549        1.79077737878295
H           -3.14790212420361       -2.13403115495592        2.37802370057787
H           -2.25307035072424        0.10400119276691        2.25864496517604
H           -2.98443831108311        2.42508519256690       -1.78569073559353
H           -1.57947424026607        3.21652451043656       -1.08927007106055
H           -1.77391982268022        0.22486323355011       -1.66066626354579
H           -1.07899528302852        1.42481561353640       -2.75285384383871
H           -0.66784269002561        1.62658659927046        0.93730963546962
H            0.70005496439658        1.95133759248810       -1.01031005078606
H            2.14458704232515       -0.72122417215330        0.68417599967434
H            2.31653109964259        0.93329871142199        0.08104546291410
H            2.80487316151820        0.03235501355600       -2.20125282947578
H            2.72542781460114       -1.61293901888583       -1.55449255535350
H            4.64868139532884        1.53024710898352       -1.58561543545834
H            6.94765068261247        1.74451436186704       -0.79639794935981
H            8.66924170026340        1.80516787785522        0.82767450576971
H            9.23205451070224        1.14370697415219       -0.73437897297098
H           10.05907076333490        0.69476108085420        0.77727298040561
H            7.10220250764157       -4.24055795992270        1.66689331953440
H            5.47921918769214       -3.52072661671643        1.79282383134531
H            6.07663790922052       -4.11795442376279        0.21708214849690
H            4.44766727456276       -2.43113309799842       -0.03409818417497
H           -0.23365684493214       -1.65194910447286       -1.70110587315960
H           -0.99806315194209       -1.27481441857170       -0.14613711108235
H            0.56498099076658       -2.10062452677983       -0.18305345161082
H           -4.66590868833149        2.70909609202136       -0.17849148540670
H           -3.83552548421133        2.84724525886920        2.74266246018906
H           -4.86175601637860        1.60587466539970        2.02038989810020
H           -5.42197350788831        3.27421848610592        2.09447716792473
H           -2.79935895827679        4.65944205736420        1.22829364436873
H           -3.20993482592655        4.68744523046781       -0.49362117293022
H           -4.44789964535048        5.01369737021721        0.71465719766085
H           -0.72084950506525        3.03112524727055        2.78786584539027
