72
 energy: 10.029803029744 xtb: 6.6.1 (8d0f1dd)
N           -1.53383728677559        2.85875258974250        2.24575320369133
C           -1.55060803928154        2.16314190832626        1.19797141471832
C           -2.72783453349939        2.03258684251918        0.27310157039652
C           -3.26617243627149        0.61348267272788        0.35244873936358
C           -4.19561195535893        0.17594089633365       -0.59053457916258
C           -4.78581655611572       -1.07259677832486       -0.62040222892803
O           -5.76051836456015       -1.30576347798951       -1.64245635240363
C           -6.54075298578312       -0.33263410900950       -2.47591117988808
C           -4.35704223476528       -1.98124435977048        0.43440602753186
O           -4.89795984852924       -3.23615092644505        0.47285017417648
C           -4.58209695036012       -4.11018832319313        1.53134458552942
C           -3.43607108267077       -1.53827937888352        1.39371174655936
C           -2.89153735620315       -0.25986657484291        1.35326378562751
C           -2.17489545222844        2.29088624931935       -1.15269365838759
C           -1.25350702144063        1.17832087641154       -1.68264835455774
C            0.04245215759247        1.11108946894162       -0.96611345986727
N            0.64580919250029       -0.06767843907627       -0.57091971167256
C            2.01420205346685       -0.05613509851987       -0.17228064048877
C            2.95294375617554       -0.55711399147090       -1.29266434502949
C            4.37580221719234       -0.44692918629627       -0.85086971512779
C            5.09072458596381        0.71905467139725       -1.05223526397800
C            6.40023950234865        0.83400882233157       -0.60894892041619
C            7.01240756853113       -0.21603067447376        0.05187955686678
O            8.28851435447364       -0.21428623850013        0.52943777810012
C            9.08019716823850        0.92688899376244        0.32472691080556
C            6.28784536990581       -1.40866830209502        0.27247881112656
O            6.97035408689286       -2.38810908051490        0.93020611301820
C            6.33718425556616       -3.62036512419386        1.15388748392097
C            4.98410407012165       -1.50499923846059       -0.17462183012726
C           -0.04437874766563       -1.32156988209710       -0.64026937806428
C           -3.89231920585304        3.01265830554910        0.58496096052583
C           -4.52107585042794        2.71528761622963        1.94561627830624
C           -3.47113792029960        4.47859868035752        0.52519315619402
H           -4.51493637163176        0.84972713556033       -1.36699523476215
H           -7.02272932116135        0.50027760684966       -1.96106379213880
H           -7.34650881152293       -0.92001662020699       -2.93961755060299
H           -5.91228695910244        0.03633413500262       -3.27987136715810
H           -4.86529628614485       -3.70063312634040        2.50634434829184
H           -5.16746685221843       -5.01070236771622        1.34656351150101
H           -3.51941710434779       -4.37832484903652        1.55001324571633
H           -3.10885694654220       -2.17990221497349        2.20651524783763
H           -2.19465736339754        0.05753847398646        2.11829364250837
H           -3.01312714860711        2.40442404023650       -1.84146354598398
H           -1.62162347695899        3.23077362594145       -1.15210095583006
H           -1.78606412034375        0.22958676021079       -1.64001140736740
H           -1.04186784473562        1.39593553478588       -2.73969090163621
H           -0.67657511571679        1.63611457029638        0.77281807196875
H            0.67103023963926        1.98317607918146       -0.97698185146039
H            2.13810183239653       -0.69000291507976        0.71324679401346
H            2.30348212437872        0.96217851450561        0.09621255225652
H            2.78272480136981        0.05117780472839       -2.18254455822867
H            2.70069826797908       -1.59213202529330       -1.53054682119810
H            4.63333942446066        1.54744281827353       -1.57220047758274
H            6.93555458977429        1.75215627060859       -0.79171640234050
H            8.65964151826694        1.80786496929998        0.82176899786719
H            9.21520201801981        1.14201982323930       -0.74095453513903
H           10.04655434740630        0.69291810914148        0.76845405498685
H            7.07656647492676       -4.23887957668236        1.66078255279368
H            5.45650787353520       -3.51362170150201        1.79640228910748
H            6.04595816242168       -4.10456499355043        0.21534347021012
H            4.42214716580951       -2.41331491715340       -0.01871718397266
H           -0.22600116992365       -1.63688821259694       -1.67444221690610
H           -1.00749408352274       -1.25685920258533       -0.12646795610850
H            0.56111130975903       -2.07854507865827       -0.14643935852833
H           -4.65765921653497        2.84460925542456       -0.18346739321910
H           -3.79187559982621        2.87514797551803        2.73205161584339
H           -4.87066577871047        1.68733899402112        1.99643597619346
H           -5.36953918711480        3.37550894989941        2.11110767697447
H           -2.68872216384967        4.66996727787978        1.25185600212123
H           -3.11568322133061        4.75609359730719       -0.46389293144912
H           -4.32611406761762        5.10719444467028        0.76446420442977
H           -0.65375870166230        2.88630668404491        2.75444790087550
