72
 energy: 68.966385707539 xtb: 6.6.1 (8d0f1dd)
N           -1.59430633295659        3.04093938522976        2.23379227044212
C           -1.55304331247919        2.21824690121098        1.29121615812968
C           -2.68098073633488        1.98046410406465        0.33466861124761
C           -3.14130416886310        0.53420320792907        0.44583268098230
C           -3.92848500263473       -0.00724331985279       -0.54128758055466
C           -4.46326326449102       -1.33850260127501       -0.51859093396155
O           -5.13965413420523       -1.76351204447736       -1.47368858449774
C           -7.36917730989567        0.52078276742394       -3.31037259361271
C           -4.11074411712468       -2.11256575593671        0.67172035612306
O           -4.59398285495424       -3.38826665912673        0.71124696255585
C           -4.37262039722098       -4.14997577482980        1.86821548097883
C           -3.32993985042523       -1.54933974331152        1.65772752481123
C           -2.84103059236600       -0.24805431202641        1.55858501228082
C           -2.11905299975004        2.27214712756713       -1.08252784379891
C           -1.23879624049426        1.16126653306153       -1.69120501818028
C            0.09150562185460        1.04494170261833       -1.06693212213981
N            0.64855083351248       -0.08042344036422       -0.62063687895432
C            2.03155054598606       -0.09290949494285       -0.20585450536403
C            2.97233422201977       -0.59211321741132       -1.32041345748167
C            4.40314429307629       -0.47528975259757       -0.86666726665062
C            5.11370358420989        0.69104251235654       -1.07260889222137
C            6.42156341320963        0.81629085156257       -0.62361712015585
C            7.03719766216004       -0.22681119735838        0.04298013531469
O            8.30619340101246       -0.21855584643530        0.52621274281638
C            9.09963801476413        0.92614807242211        0.33182445667098
C            6.31844931346524       -1.42691906727364        0.25866638759297
O            7.00580807448803       -2.39704162668869        0.91628115771275
C            6.38179057924241       -3.63383100447160        1.15360910490093
C            5.01681216989411       -1.53203764963429       -0.19505761933227
C           -0.04409777987405       -1.34597404337549       -0.68082552669630
C           -3.93007498758689        2.86839025861907        0.59409721081133
C           -4.56158655356578        2.57911974240241        1.95539485753255
C           -3.64153970571279        4.36258873915358        0.47159592268810
H           -4.19873249733853        0.56609995661119       -1.41652596454226
H           -7.58192108733281        1.16224863308586       -2.48294290529317
H           -7.97839775117967       -0.32877225344563       -3.51011375844681
H           -6.56843913105559        0.77188642633636       -3.95937232798990
H           -4.81886779818153       -3.69302492379384        2.75954082778108
H           -4.85367982324134       -5.11135139963661        1.68922623100839
H           -3.30664661419768       -4.32625885321788        2.06450866428263
H           -3.08238181989463       -2.11060446203676        2.54689502726758
H           -2.25812824356932        0.15519797268464        2.37307868530684
H           -2.96026409225405        2.42029472114373       -1.75854181411471
H           -1.54849218293771        3.20295509046713       -1.04714884455267
H           -1.78418143056984        0.21958164491630       -1.67184453067470
H           -1.08601705473076        1.43945050323737       -2.74224341106184
H           -0.66415346658265        1.60950280582706        1.04327854082555
H            0.69337858710550        1.93734833853369       -0.99910259396672
H            2.13187683364666       -0.73887263280108        0.66971652931458
H            2.33258725831314        0.91882921146447        0.07747874939227
H            2.81775562851041        0.01682760752104       -2.21341248295586
H            2.73793192251575       -1.62846836029695       -1.56661234366578
H            4.65892360393080        1.51844720837229       -1.59673023688214
H            6.95060434334358        1.73815799818472       -0.80426939565184
H            8.67291199737776        1.80404599131695        0.82824778630703
H            9.24318003743958        1.14329731169376       -0.73167614710254
H           10.06239676955728        0.69096032326577        0.78318982689930
H            7.12521422449669       -4.23803680858774        1.67117360522064
H            5.49763669704879       -3.52682568085997        1.79141634210695
H            6.10035266382855       -4.13101514539020        0.21938237808032
H            4.46257557635105       -2.44498574725836       -0.04106552017420
H           -0.24483363634767       -1.63995600633082       -1.71321283849913
H           -0.99466192318429       -1.28272293765749       -0.14391063022433
H            0.57318364318172       -2.11057871534510       -0.21641315725009
H           -4.66100081588114        2.59039831476217       -0.17344445362956
H           -3.86712913693652        2.82806119382753        2.75136990182471
H           -4.84223873433401        1.53258099071938        2.04074253782767
H           -5.45825115239916        3.18313350541263        2.07427380191474
H           -2.89302038119047        4.65626959940697        1.20125608377889
H           -3.29599890415754        4.62657574898008       -0.52461971842743
H           -4.55261364448906        4.92207592160479        0.66798236214602
H           -0.76140789236515        3.12305295082881        2.81018338598864
