72
 energy: 67.958465534050 xtb: 6.6.1 (8d0f1dd)
N           -1.58947403210468        2.98244295123636        2.25005875520094
C           -1.55887807544787        2.20699179080597        1.26624214618478
C           -2.69809456758787        1.99899760517993        0.31539363547478
C           -3.18394407978921        0.56302601490835        0.39939567527830
C           -4.00755992109607        0.07280179686172       -0.58833449261547
C           -4.59409121458300       -1.21528029579217       -0.59889186009794
O           -5.36728283659770       -1.44194152996299       -1.57805638347892
C           -6.98673300853328        0.17859456522067       -2.93242809574903
C           -4.23357637141283       -2.05243707987175        0.55753579952946
O           -4.74199206225606       -3.32562376770878        0.59947943535484
C           -4.46867882493354       -4.13082964338403        1.71406361648291
C           -3.40479466045232       -1.54020792551731        1.54166023620549
C           -2.87998316025651       -0.25298497861015        1.47592803356537
C           -2.13482587698664        2.28086300692782       -1.10220099847134
C           -1.23950342694690        1.17100727763394       -1.69613259719726
C            0.09729983230077        1.05056645460658       -1.07531672013217
N            0.64892127152742       -0.07577347118433       -0.63010875298461
C            2.02654846253715       -0.08502299125947       -0.20014534043457
C            2.97119431468777       -0.58102496539984       -1.31403587686745
C            4.39905736890629       -0.46661580904368       -0.86519406432468
C            5.11011124830774        0.70042945822810       -1.06639747021136
C            6.41908828193289        0.82141192353921       -0.61793144731830
C            7.03514718006585       -0.22479980167005        0.04608965088585
O            8.30439784729825       -0.21745517491673        0.52985642472632
C            9.09621231344169        0.92673424938423        0.33143386298753
C            6.31335965497080       -1.42256530459239        0.26267630814874
O            6.99472959750851       -2.39438201032455        0.92507718616781
C            6.36654264725209       -3.62930933160360        1.15414810329223
C            5.00986381859351       -1.52312374973279       -0.19008559241814
C           -0.04119790339489       -1.34235822056057       -0.67558086538462
C           -3.92054360248608        2.92408871583199        0.59049714989481
C           -4.55204392401904        2.63122569208070        1.95164033580636
C           -3.57957386390304        4.40833759834883        0.49333651202501
H           -4.30767814282474        0.69319183348100       -1.42337120325411
H           -7.31626362246299        0.89835375038960       -2.23201229339303
H           -7.68153271688246       -0.56489842042024       -3.23040368466776
H           -6.25321016125374        0.44978495257152       -3.63864644443047
H           -4.84055176870800       -3.69107167911496        2.64603732736214
H           -4.99575086238041       -5.06722120798996        1.53785601351488
H           -3.39887075689728       -4.35035040200019        1.83036022605193
H           -3.14818259508547       -2.12734482135535        2.40932133320550
H           -2.26163513803385        0.11308461577485        2.28091700206480
H           -2.97882517168141        2.42670946242579       -1.77756177944973
H           -1.57237311663197        3.21389900664671       -1.07960179900674
H           -1.77210494187395        0.22347035008996       -1.66497166236750
H           -1.08474376174279        1.43153835108640       -2.75294331353081
H           -0.66739242168406        1.62598990300585        0.96476313049346
H            0.70555479375234        1.94544817099272       -1.01534924204352
H            2.14406055686243       -0.72726737009869        0.67871474850616
H            2.32005385833169        0.92815540890635        0.07904964663680
H            2.80842653339048        0.02887744326722       -2.20450056143429
H            2.72943830420833       -1.61686978945869       -1.55850929072166
H            4.65121799977075        1.52721268140226       -1.58785240034730
H            6.94938058863387        1.74306080883231       -0.79710588489977
H            8.67079895404505        1.80467461813314        0.82888196132768
H            9.23495347364616        1.14388153603052       -0.73305184845921
H           10.06102085799641        0.69468801636127        0.77916081938699
H            7.10672559173439       -4.24068456225036        1.66800851833490
H            5.48316773611502       -3.52195182144730        1.79237505073830
H            6.08186979946836       -4.12027352791766        0.21749435589418
H            4.45204421298707       -2.43438838294262       -0.03645117045255
H           -0.23402259421882       -1.65226346410711       -1.70609458544250
H           -0.99686320125452       -1.27804271691980       -0.14956767923887
H            0.56631702331467       -2.10326263967081       -0.18978430018141
H           -4.66707742303625        2.68701470633818       -0.17770483176536
H           -3.84302031351005        2.84223259034626        2.74410060775970
H           -4.86034211342132        1.59215529786557        2.02354557870119
H           -5.43056179972162        3.25696809087876        2.09163454167355
H           -2.81818762863512        4.65831742764080        1.22366341132443
H           -3.22604985918282        4.67617728977576       -0.49896343996538
H           -4.46822452122655        4.99794902827985        0.70599043266534
H           -0.73324349192789        3.05454434475749        2.79366055885317
