72
 energy: 69.471518160735 xtb: 6.6.1 (8d0f1dd)
N           -1.59722059609494        3.00265504304335        2.24661764260890
C           -1.56059631743269        2.21229823397174        1.27525761137601
C           -2.69448388947258        1.99374805855888        0.32087050662352
C           -3.17298386927208        0.55539844321411        0.40521309824528
C           -3.98448126888173        0.05717447596172       -0.58647452848723
C           -4.56778446053670       -1.23705365429194       -0.58398262282189
O           -5.33283185020222       -1.48796028149363       -1.54629178425950
C           -7.05639465914460        0.24693220886003       -2.99700472348778
C           -4.21319956237817       -2.06463960624966        0.57920409164664
O           -4.71833940757733       -3.33669650360971        0.61913735520767
C           -4.45211749416777       -4.13324553186473        1.74100339575135
C           -3.39587023428878       -1.54223839182691        1.56380477019348
C           -2.87766904772193       -0.25236958624386        1.49238746065941
C           -2.12931384871046        2.27892165264606       -1.09506729542219
C           -1.23745035876038        1.16909776570937       -1.69595831680136
C            0.10371647054246        1.04385665900192       -1.08816362341417
N            0.64618710984667       -0.07588422572377       -0.62523276372156
C            2.02787837415366       -0.08905047291189       -0.20327461706099
C            2.97345823228366       -0.58476130105220       -1.31723449272377
C            4.40192776632094       -0.46967490390481       -0.86722873881020
C            5.11285910913234        0.69756958123459       -1.06825051754154
C            6.42162575013363        0.81945823272240       -0.61897702098801
C            7.03829261098937       -0.22603845117545        0.04562660068028
O            8.30712655071382       -0.21803095825737        0.52998441930082
C            9.09857351352160        0.92667871505819        0.33267392431440
C            6.31686095614491       -1.42451178895521        0.26138993004575
O            6.99842256402139       -2.39555688275388        0.92413816722920
C            6.37069277208280       -3.63060289537454        1.15422068488409
C            5.01356247320251       -1.52585904067285       -0.19215867875212
C           -0.04081381832515       -1.34429096893123       -0.67954071217747
C           -3.92462046890193        2.91117528981737        0.59116512111976
C           -4.55627506109142        2.61877632362685        1.95239595972784
C           -3.59483337585069        4.39769362792865        0.48834771772766
H           -4.28002115849239        0.66987127656428       -1.42939189949048
H           -7.35941714810231        0.94927365070192       -2.26937097069740
H           -7.73351053718573       -0.51809832491611       -3.27295754165232
H           -6.30732180981735        0.50722789517655       -3.68849875709920
H           -4.83630115489859       -3.68935790123009        2.66593513961991
H           -4.97040962153971       -5.07423442407382        1.56576529853808
H           -3.38204263076651       -4.34449062661217        1.87046025068330
H           -3.15335100917764       -2.12068656634683        2.43947596010463
H           -2.27167795969840        0.12189102859426        2.30249236031626
H           -2.97326083104311        2.42808013777547       -1.76955770486322
H           -1.56545292156513        3.21110365490832       -1.06959450105278
H           -1.77069235254054        0.22185182222831       -1.66943488824725
H           -1.08967188295845        1.43856984612298       -2.75104947433752
H           -0.66762774375622        1.62458820889484        0.99240977116639
H            0.71095861420999        1.93844330495175       -1.01672325745746
H            2.14411448147088       -0.73326838954511        0.67359518196589
H            2.32409568634277        0.92306544453558        0.07731072649758
H            2.81188556044903        0.02554168559681       -2.20759244204629
H            2.73345893402375       -1.62076984777063       -1.56241757935503
H            4.65400604267166        1.52417909787861       -1.59008888021479
H            6.95127738831738        1.74155192627131       -0.79768081345813
H            8.67238299293197        1.80417728770572        0.83016748934101
H            9.23793440010120        1.14409455787322       -0.73164561671282
H           10.06301421368971        0.69459892307979        0.78117017804425
H            7.11094871090975       -4.24090415334191        1.66916023763612
H            5.48690105628824       -3.52309998754948        1.79186069761330
H            6.08685560551414       -4.12262178269946        0.21789655743485
H            4.45647930142830       -2.43763249092673       -0.03891650313881
H           -0.23426134584672       -1.65106705892677       -1.71108031395095
H           -0.99583246468066       -1.28206671434481       -0.15262085859126
H            0.56781570201879       -2.10618598700962       -0.19683937289151
H           -4.66838642047714        2.66471622627861       -0.17667748618903
H           -3.85032161960918        2.83726882888579        2.74559593938618
H           -4.85860130083585        1.57816456821459        2.02725205643820
H           -5.43895203376173        3.23933069724283        2.08892242575996
H           -2.83667314608005        4.65647694988288        1.21885969070408
H           -3.24168385222140        4.66414938444786       -0.50441962453808
H           -4.48795535939568        4.98180185086300        0.69711448846473
H           -0.74620937756830        3.07819932537881        2.79870490947705
