  25
        -42.13229031
 C          3.2387366980        1.1240840153        0.0170027391
 N          2.2563476394        0.0780994635        0.0002468011
 C          2.4782005112       -1.2575643601       -0.0039210663
 N          1.3709642214       -1.9643419326       -0.0060515056
 C          0.3650391152       -1.0624871100       -0.0010848178
 C          0.9040970095        0.2345620077        0.0027828567
 C          0.0714949866        1.4122887921       -0.0019217105
 O          0.4643944763        2.5576180855       -0.0083373547
 N         -1.2821386842        1.0813268026       -0.0013283944
 C         -2.2430808066        2.1704051407       -0.0039084744
 C         -1.8386101407       -0.1921652523        0.0044814139
 O         -3.0309091776       -0.3528593070        0.0123725569
 N         -0.9619768845       -1.2845337570       -0.0011457195
 C         -1.5031769975       -2.6215124005        0.0013009861
 H          3.7502181644        1.1476200575        0.9817267733
 H          3.9801928491        0.9562012506       -0.7647190099
 H          2.7435293517        2.0815748717       -0.1436587217
 H          3.4611427630       -1.6871229135       -0.0056114713
 H         -1.6960852295        3.1111610833        0.0023237431
 H         -2.8765849527        2.1055853135       -0.8902467880
 H         -2.8879539727        2.0993940605        0.8736587233
 H         -1.1443330398       -3.1646376029        0.8763910605
 H         -1.1794766283       -3.1547565038       -0.8935989295
 H         -2.5900217536       -2.5524292608        0.0217654837
 H          2.4083286814       -4.6112534470       -0.1825849731
