72
 energy: -99.376210810300 gnorm: 0.004330701077 xtb: 6.6.1 (8d0f1dd)
N           -2.19170071455398        2.45982648139270        2.53266869387695
C           -1.90194175527440        2.21487979260373        1.32726648011064
C           -2.73800236509235        2.48335347476011        0.18270696248518
C           -4.47856428539073        0.15446900460917        1.62542676797057
C           -5.30896464075315        0.16112227195753        0.51164024567182
C           -5.30407944703874       -0.90122960139509       -0.38185485534914
O           -6.06967142486983       -0.99835185677886       -1.49283175388944
C           -7.06088566502619       -0.02603951717649       -1.72566184397284
C           -4.44399263975009       -2.00539374869020       -0.14325095383150
O           -4.51057300101258       -3.00171503312464       -1.05814412546253
C           -3.84637538326031       -4.21412895721705       -0.79466325785848
C           -3.62030474658460       -1.99544543508953        0.97230021333407
C           -3.63604701303899       -0.91708951265665        1.85110383687687
C           -2.30374375298532        1.84935174140184       -1.12344970288218
C           -1.51306731103268        0.54669699820652       -0.96557101102066
C           -0.12508347938030        0.76853864782664       -0.49365008534745
N            0.63584809772157       -0.17476906967659        0.05197596705748
C            2.04679266803970        0.04422616400627        0.26896660641261
C            2.89502456071223       -0.55471356788499       -0.86990242157638
C            4.35287873367689       -0.26908708042839       -0.63971881598584
C            4.89443465656166        0.95448132706369       -0.99957268003670
C            6.23325034598308        1.23311722003136       -0.77324184925072
C            7.06012764337630        0.29024913773022       -0.17980953832807
O            8.37093317819651        0.44862215244793        0.08302798321629
C            9.00219568465544        1.65726035357497       -0.27179979229493
C            6.51376969829975       -0.96846573778786        0.19347281313774
O            7.38776785789570       -1.82794239699785        0.75459695731184
C            6.95140563899487       -3.11516705780794        1.12024826492872
C            5.17060646467284       -1.22171351781487       -0.03710354747470
C            0.10175732572242       -1.48021471450145        0.35231758403879
C           -3.80539550207974        3.32203925755423        0.20528688196722
C           -4.30809397289587        4.00003503953931        1.42845611305772
C           -4.55387839801162        3.65215185272513       -1.04947703234635
H           -5.96956821668364        0.99738352617763        0.35663920371402
H           -7.75475112033175        0.05009855519819       -0.88366277367126
H           -7.60051789842359       -0.36215975700381       -2.60906840415399
H           -6.62268933149063        0.95771506239242       -1.92512318672572
H           -4.15989378988886       -4.64342490472172        0.16160059818009
H           -4.13097104921428       -4.88610570255268       -1.60203683693030
H           -2.75790418232553       -4.08895705151062       -0.79751903399755
H           -2.97721866585533       -2.83827636075063        1.17525283086476
H           -2.99825444254131       -0.92866518086303        2.72117693656495
H           -3.19194617874739        1.61796632492276       -1.71078733394774
H           -1.71394419696925        2.56776361716690       -1.70234423803415
H           -2.06102984347300       -0.12446336378828       -0.29989363742757
H           -1.46998279940661        0.05699663835062       -1.94815626572321
H           -0.93280899659161        1.75240338896002        1.03987998985940
H            0.37433674214193        1.68051174683598       -0.78634395962282
H            2.33869957613629       -0.40981862896586        1.21931340237224
H            2.24052754175056        1.11691186754782        0.33022328903487
H            2.57455910747353       -0.10987106187968       -1.81404338082971
H            2.72782886961747       -1.63119654491089       -0.92230425086409
H            4.27581491119172        1.70089771379575       -1.47445820973160
H            6.62678453611966        2.19123542152508       -1.07046369267976
H            8.56303179161091        2.50906289533262        0.25641459661189
H            8.95509107974656        1.83192337475776       -1.35088877741415
H           10.04151968609294        1.54296162781557        0.03002203782921
H            7.83125574163854       -3.62094637995295        1.51316064558662
H            6.18226047810182       -3.07272862796171        1.89814782753517
H            6.57058171807796       -3.67018484636901        0.25724038039374
H            4.74849169698343       -2.17541691494805        0.23874481568376
H           -0.23625126757246       -1.98138559495708       -0.55747460461248
H           -0.74714764626117       -1.39611349025383        1.03426071506032
H            0.87009766335629       -2.08704825808757        0.82408689377124
H           -4.49569742720461        0.98677112895886        2.30548972249061
H           -3.62017177423819        3.88393589866181        2.26006721616840
H           -5.26542269020008        3.56405038531914        1.71516238296628
H           -4.48065163358560        5.05619770180636        1.22636681602605
H           -3.89522496407405        4.11770539465202       -1.78215261313681
H           -4.96635725823505        2.75472364850893       -1.51056450935629
H           -5.37181795027833        4.33522040416625       -0.84012463287492
H           -1.49056927593507        2.24951175668628        3.23366577908184
