72
 energy: -99.650376337345 xtb: 6.6.1 (8d0f1dd)
N           -1.85451779350836        3.07604146515790        2.47003583892337
C           -1.72973140982832        2.25240063990023        1.53367268452729
C           -2.75347779613138        2.08693939170580        0.44789377345252
C           -3.32034737608502        0.67686355181128        0.49164914483542
C           -4.16699391045067        0.23723173310513       -0.52875307448680
C           -4.72085964163312       -1.02802924956495       -0.51119252570022
O           -5.56644034427394       -1.52546230845056       -1.45575321679739
C           -6.06373259340577       -0.66060250523328       -2.44566191456731
C           -4.40958173476277       -1.91408817137608        0.54564154184624
O           -4.98056753746257       -3.14664416076897        0.46295305324449
C           -4.76266249938425       -4.06285955230812        1.50494367684996
C           -3.57618317699980       -1.47650753527489        1.55685823263564
C           -3.04554604874956       -0.19104501424815        1.53198677293523
C           -1.98053797570227        2.31540446352088       -0.87595140020251
C           -1.10876185556882        1.13263616709813       -1.32893990443423
C            0.11975214382501        0.90797297138773       -0.51468219359946
N            0.60458660441108       -0.26872726802139       -0.16210833209163
C            1.77612545870904       -0.45560614834164        0.43031247104585
C            3.51108084736422       -0.62810804494875       -2.40021641889252
C            4.65908957203995       -0.47781801830843       -1.64702511439338
C            5.47777679775315        0.66835356629909       -1.77593025850242
C            6.64439804232811        0.81324264307945       -1.06021005366182
C            7.03608679957459       -0.15362908786232       -0.14053059367441
O            8.11356985007059       -0.08503149617502        0.69117646695961
C            8.95853605556897        1.03396767847367        0.63101591817651
C            6.25281784419922       -1.33234778112278       -0.00813465806526
O            6.71435238207147       -2.22265527582071        0.91966851060559
C            6.03065691312880       -3.43799177451096        1.07502578788228
C            5.11014689113260       -1.48576057229199       -0.74383442416347
C           -0.20346420694175       -1.44837269663336       -0.39099851104353
C           -3.93758766451696        3.08842031869886        0.54938139113851
C           -4.76011707800682        2.86695136786870        1.81877646082118
C           -3.50876349961886        4.55250333634750        0.46468934111162
H           -4.40079752516179        0.90321331571393       -1.34373548054529
H           -6.56270840827660        0.21200385655520       -2.01043160682169
H           -6.79213514984711       -1.24610658298494       -3.00504622980852
H           -5.27456416121178       -0.32671212041576       -3.12720858294033
H           -5.12634580019879       -3.67991591341162        2.46414948998986
H           -5.33394509641412       -4.94918909600466        1.23361655716708
H           -3.70411800960574       -4.32959118152658        1.59778305182882
H           -3.33835032954116       -2.12005545522932        2.38951069667436
H           -2.42882375445206        0.12535359448775        2.35928570031750
H           -2.70635122248663        2.52962658943902       -1.66304583280795
H           -1.35014130365195        3.19935468558429       -0.76993027372950
H           -1.72956639420978        0.24012621112894       -1.39498366801251
H           -0.76729639115576        1.38064991326012       -2.33989973881518
H           -0.85012514322861        1.60942119369947        1.38219640200626
H            0.76230117989200        1.75825242950414       -0.36001312827501
H            2.04068006593680       -1.41802010533566        0.81045945823844
H            2.38994065689214        0.39100824268300        0.65390641106680
H            3.22859549594695        0.09838918738029       -3.14524041094062
H            2.97390999595370       -1.56264867019465       -2.36708413151497
H            5.19009877284887        1.43097626701951       -2.48298649731749
H            7.24596036950358        1.70107929843629       -1.20082716157913
H            8.42251623171233        1.95775414011487        0.88613269455391
H            9.42734169065717        1.14217919257891       -0.35050750426682
H            9.74053334697877        0.84965767463034        1.36759436300514
H            6.56088641790750       -3.97661929487600        1.85820817079439
H            4.99125046485313       -3.28717258195268        1.38677818137911
H            6.04796832699968       -4.02490126752941        0.15156229308638
H            4.51512133715690       -2.38035087677148       -0.66032637724511
H           -0.33639351719041       -1.63135676252638       -1.45506495429684
H           -1.18333152031482       -1.32886182025973        0.07440561469165
H            0.30344327701089       -2.30245334822803        0.04624290544715
H           -4.58643987059679        2.88094696210041       -0.31089900666142
H           -4.16775460673359        3.10381528501690        2.69454758303090
H           -5.10093934541898        1.83659351271261        1.88897155401763
H           -5.63313042347687        3.51690138229207        1.80937557857937
H           -2.84019064097147        4.79516237629496        1.28257399544842
H           -3.01955390504561        4.77471197204417       -0.48058597531303
H           -4.38753709527120        5.18956148977806        0.54233409504401
H           -1.09086849113571        3.12762551537188        3.13983138916662
