72
 energy: 93.742168744089 xtb: 6.6.1 (8d0f1dd)
N           -1.74701310344885        2.67251341864607        2.38139835734154
C           -1.62618167828541        2.08006664712889        1.28471212196313
C           -2.75215348557954        1.97521489922951        0.28694375326571
C           -3.34576668463343        0.54100552138505        0.38661365823645
C           -4.35166477633420        0.13867442962521       -0.49631345616645
C           -4.87587072907529       -1.13955101278239       -0.47851754646744
O           -5.85095575054912       -1.60359320700106       -1.31048037383151
C           -6.40003027851313       -0.73569259266886       -2.26944793754376
C           -4.40456925712387       -2.07709330591525        0.46411280622138
O           -5.00771382525749       -3.29983716910463        0.42850191729519
C           -4.66624133562430       -4.25903053564668        1.39620329505674
C           -3.39683657562821       -1.69197193443032        1.32537101857764
C           -2.87362480787532       -0.40285429194308        1.28276795237630
C           -2.17130276751080        2.15974315941507       -1.13737296465331
C           -1.27379800063951        1.01970227266191       -1.67476360051875
C            0.08465552226805        0.95097462872235       -1.09392570191433
N            0.68136168352969       -0.16726213724097       -0.59707547306667
C            2.06013121640854       -0.11634082585003       -0.21773805176105
C            3.00527049345403       -0.59447654713405       -1.34058362078315
C            4.42901711304574       -0.47874907430826       -0.89045979855939
C            5.14385677651518        0.68711130110154       -1.08928497738196
C            6.44893474559470        0.80790258165493       -0.63146981458803
C            7.05750843305152       -0.23694805421878        0.04050841343151
O            8.32367331965311       -0.22543496007376        0.53691706854242
C            9.11088537764686        0.92260603332740        0.34837577343911
C            6.33600844764549       -1.43408076276812        0.25196038431573
O            7.01271874307769       -2.40853475230477        0.92127438070323
C            6.38010943082263       -3.64224316183760        1.14054212890302
C            5.03721292656393       -1.53518283783610       -0.21132471856424
C            0.03489237987742       -1.44305551292216       -0.68254041920202
C           -3.77751019239255        3.10871003420123        0.54342043011331
C           -4.63008265287605        2.90990346659362        1.75088130057497
C           -3.67755239329350        5.73708124991118        0.73242324863520
H           -4.73270000596377        0.84256628196943       -1.21742856376773
H           -6.87413568762818        0.13341258005180       -1.80329742358832
H           -7.15504715176751       -1.32638587032978       -2.78963681102692
H           -5.64654478349435       -0.39708850557215       -2.98937044364292
H           -4.85814745092267       -3.90238029159220        2.41348556175491
H           -5.30833061801999       -5.11587654458834        1.19631500395423
H           -3.61993190547842       -4.57456853054154        1.31205336955365
H           -3.01362517215002       -2.39022183099901        2.05317981461244
H           -2.10113531010797       -0.14147825904108        1.98874511644926
H           -3.01033409010597        2.26437355329768       -1.83011615741736
H           -1.60884178115128        3.09608484738692       -1.16514090979575
H           -1.79125096319759        0.06743742790192       -1.57988839481122
H           -1.15143627720843        1.22524823409280       -2.74981274909456
H           -0.69912020395452        1.60324970745066        0.92541624550068
H            0.66956413531675        1.85951427438134       -1.05297846093185
H            2.20947153405105       -0.73771222346280        0.67194832563418
H            2.32334780781058        0.91062265560490        0.04262689015204
H            2.83787972821635        0.01981700071422       -2.22779365799962
H            2.76763481082197       -1.63019231526977       -1.59283317319235
H            4.69079345743285        1.51245507704713       -1.61736886883867
H            6.98209469797648        1.72864383027778       -0.80758009239493
H            8.67141628803196        1.79859331511079        0.83691183162118
H            9.26650758825142        1.13884911222139       -0.71404052802151
H           10.07074488055521        0.69942844295958        0.81191163750396
H            7.11096237282277       -4.25697175990498        1.66395033383622
H            5.48815006627552       -3.53378670162342        1.76657082641749
H            6.10614789506018       -4.13175535568242        0.19958537340663
H            4.47896331659613       -2.44703163812581       -0.06331030284207
H           -0.12074716553795       -1.75917758704115       -1.72118798156272
H           -0.93437816874550       -1.41080190811595       -0.17945540519863
H            0.65716286677342       -2.18085175174659       -0.18345181367190
H           -4.16929330785049        3.62237690165517       -0.32711061030221
H           -4.04400668775547        3.15197854627955        2.64162665231499
H           -4.92030690016189        1.85299076076841        1.88033479359320
H           -5.53387150658677        3.51635415320959        1.75472574932581
H           -2.95463625431254        5.78030279756514        1.51755807060957
H           -3.31586718152007        6.15782324634383       -0.18546927202613
H           -4.65418840093050        6.11363587785526        0.98639629104356
H           -0.91931962946914        2.68072841878922        2.97273158840732
