72
 energy: 6.439773106553 xtb: 6.6.1 (8d0f1dd)
N           -1.57774122478531        2.76474025101726        2.28566391375074
C           -1.57400414282160        2.14000092316264        1.19532093358938
C           -2.75299082039718        2.09595940536498        0.27452736328764
C           -3.35201592557935        0.65309051585267        0.37171057740509
C           -4.32162533804836        0.21851946295791       -0.54125944738840
C           -4.85447450349631       -1.05917580092506       -0.51224403335492
O           -5.82744161940797       -1.52791337976483       -1.34701337416144
C           -6.39715612443300       -0.65412639933014       -2.28649004715408
C           -4.40069537132805       -1.98791973668056        0.44947314782338
O           -4.99885169410848       -3.21235173083185        0.41674685526798
C           -4.66536759077856       -4.15585092537533        1.40375731143677
C           -3.41364961928883       -1.58798740283530        1.32919907294295
C           -2.89115084034228       -0.29575612815153        1.27936720474004
C           -2.19129916830976        2.25946268378434       -1.16692286279355
C           -1.26770534009620        1.12891769941915       -1.67815926671560
C            0.02961418458885        1.07259514316870       -0.96518607244400
N            0.64874916249624       -0.08753409527107       -0.56149779590367
C            2.02161085668555       -0.06222070301657       -0.17677843970426
C            2.96018831937047       -0.55945194407170       -1.29930661392884
C            4.38333805083679       -0.44922074415275       -0.85726651825516
C            5.10003036840454        0.71580321522400       -1.05876629160833
C            6.40855812405866        0.83021298275544       -0.61272681348814
C            7.01831045183146       -0.21931202392997        0.05092643155719
O            8.29299284549454       -0.21658498986177        0.53117282096927
C            9.08378486246534        0.92570857963276        0.32959381262960
C            6.29340706489296       -1.41201110963209        0.26990279174306
O            6.97383858849575       -2.39211897433933        0.92914511587890
C            6.33879725556289       -3.62429455596587        1.14881734994308
C            4.99090052336888       -1.50771127764445       -0.18037897189319
C           -0.02078561939157       -1.35186938676871       -0.63994269963412
C           -3.81160223238189        3.28610877306888        0.57224097131610
C           -4.53463362414454        2.87350643427765        1.86129094350290
C           -3.48814499649337        4.86578272636627        0.61657229197786
H           -4.68421071059390        0.90962609963599       -1.28274902865397
H           -6.85759609606806        0.21380871368382       -1.80348635420926
H           -7.16713369316710       -1.23580564054758       -2.79336210989197
H           -5.65992638028855       -0.31398533735384       -3.02181387173405
H           -4.87440759083900       -3.78152189051515        2.41138606488813
H           -5.29786710854815       -5.02048379854014        1.20728076598064
H           -3.61468437297104       -4.46060716851788        1.34038739488773
H           -3.05205401564287       -2.27581773057813        2.08057030375681
H           -2.13122527745970       -0.03362524136656        1.99998992167984
H           -3.02461945957453        2.34385983281335       -1.86627491998725
H           -1.63855539893767        3.20030133428108       -1.19004719632397
H           -1.79221626118010        0.17618351834039       -1.61498201259430
H           -1.06647595258661        1.33675664685203       -2.74177710217490
H           -0.69775197087808        1.63037491604812        0.74213121135070
H            0.65496390545693        1.95247561388346       -0.98921511434916
H            2.15433605913221       -0.69026814263588        0.71144422482064
H            2.30483991637739        0.95927054780130        0.08628720748671
H            2.79073377332344        0.04969520691672       -2.18907425177590
H            2.71148455034887       -1.59484593716768       -1.53970783563213
H            4.64549572431592        1.54415669380601       -1.58104123926762
H            6.94522729913010        1.74756995424498       -0.79536068478667
H            8.65815916425699        1.80577710557250        0.82379556703978
H            9.22420236247441        1.13993858917935       -0.73545960797998
H           10.04861250489394        0.69443937495119        0.77848850317957
H            7.07464152748340       -4.24465441979662        1.65849927398984
H            5.45522927820892       -3.51698969621422        1.78722288566401
H            6.05089455168508       -4.10705155453005        0.20839382097902
H            4.42879421293608       -2.41601505634229       -0.02603217425900
H           -0.18775699333099       -1.67090924554355       -1.67647064803218
H           -0.98849889478109       -1.30161068461186       -0.13382285240999
H            0.59110356719392       -2.09996628248235       -0.14115300047051
H           -4.50968240488828        3.21029031824843       -0.25872890155965
H           -3.85471410087187        3.00125263755830        2.69646400012356
H           -4.85834315900493        1.83197196555422        1.86125307938644
H           -5.41471662262244        3.48696303122454        2.00469697275730
H           -2.72372346699567        5.07496898351278        1.35442780892023
H           -3.13655259521538        5.26799385599385       -0.34036462947291
H           -4.37019475869576        5.46912328322108        0.87250347092774
H           -0.70914351656903        2.73577826330300        2.81324807532590
