72
 energy: 45.733711081031 xtb: 6.6.1 (8d0f1dd)
N           -1.67261905709708        2.73004488905131        2.34018347372179
C           -1.60146855097925        2.11817892715460        1.24554213732510
C           -2.74743684766274        2.06524044760958        0.28664022257311
C           -3.36253588420188        0.61401192231586        0.39328602290176
C           -4.34159382459019        0.18125985163522       -0.51109812374177
C           -4.86494203978664       -1.10077694471686       -0.49337938085148
O           -5.83936981159147       -1.56867670016418       -1.32755110527196
C           -6.39902242434908       -0.69968240720611       -2.27774899913794
C           -4.40352570782846       -2.03612475131374        0.45698648630233
O           -5.00491673019046       -3.25955619932999        0.42343762982969
C           -4.66543963934948       -4.21229474225920        1.39966850063237
C           -3.40449766025622       -1.64090643114452        1.32479138173586
C           -2.88727807286720       -0.34618598943847        1.28259348040005
C           -2.18330410676699        2.20979860805034       -1.14987939391596
C           -1.27140594230275        1.06975982534546       -1.67591590964747
C            0.05866106974560        1.00611747924386       -1.03114202851530
N            0.66725828616848       -0.13546802706175       -0.56792113278652
C            2.04294637940406       -0.09388082027349       -0.19769056642850
C            2.98637669793431       -0.57897175318627       -1.32214935555904
C            4.40825112177961       -0.46542108046408       -0.87645340447790
C            5.12447170533726        0.70058511788452       -1.07538583512944
C            6.43078682166423        0.81854962402009       -0.62276678847981
C            7.03970462208930       -0.22897048343716        0.04518117804018
O            8.31067134963871       -0.22145855453403        0.53482719480093
C            9.09870527827496        0.92384636901723        0.34013705050935
C            6.31678597586320       -1.42360047138315        0.26014349766596
O            6.99549055408209       -2.40112649581019        0.92594865366327
C            6.36178342500117       -3.63384731105132        1.14453090094040
C            5.01660797503855       -1.52252900750867       -0.19738528620056
C            0.01044038189142       -1.40379119656173       -0.66231830756847
C           -3.77484298100977        3.36161542448226        0.57014238696016
C           -4.58360404597862        2.95073609694845        1.79162082895644
C           -3.58079185132990        5.23945295790474        0.68717340980923
H           -4.71338653542584        0.87353203597040       -1.24694591144046
H           -6.86764290779619        0.16861683252968       -1.80386656889864
H           -7.16039372978786       -1.28689213654894       -2.79245626278949
H           -5.65257879107918       -0.36005703113764       -3.00407325784654
H           -4.86508935404143       -3.84819579543305        2.41291240008804
H           -5.30199840793801       -5.07386309781999        1.20240453908732
H           -3.61684068590463       -4.52208276282574        1.32480995575451
H           -3.03169344200163       -2.33646493695509        2.06335069057444
H           -2.11651326611797       -0.09295625139744        1.99434617001906
H           -3.01860744564763        2.30060797791639       -1.84808098034485
H           -1.62103399829066        3.14528067588784       -1.18263423124848
H           -1.78932489157221        0.11601262448860       -1.59545503599805
H           -1.11840865080154        1.27806098925463       -2.75014544757774
H           -0.70372041417802        1.61284563114979        0.84577381017076
H            0.66727021526435        1.90103797690305       -1.02981975256944
H            2.18854969088842       -0.71665883868865        0.69231754441254
H            2.31296032510525        0.93171868251934        0.06196878752992
H            2.81657292217335        0.03306813826254       -2.21021413986410
H            2.74302073677108       -1.61451810707236       -1.56908988327294
H            4.67022898419433        1.52679475851167       -1.60106979403833
H            6.96599580320953        1.73769305903080       -0.80159128216941
H            8.66536466795042        1.80188683009284        0.83113569568103
H            9.24765625366664        1.13955167076968       -0.72352649533162
H           10.06116765501877        0.69779972647864        0.79687723479848
H            7.09450524243088       -4.25155925418986        1.66203170730834
H            5.47325523892090       -3.52599606234036        1.77568206211067
H            6.08163413330442       -4.12044157981303        0.20371258260271
H            4.45629978067159       -2.43262543684975       -0.04685629567175
H           -0.15135843098324       -1.72094697000511       -1.70105038314125
H           -0.95927483355945       -1.36365686499730       -0.15943261936397
H            0.62580342422719       -2.14827305611752       -0.16353524674616
H           -4.36617063457921        3.44781140273309       -0.33229752508627
H           -3.95800701619008        3.09763376103383        2.66780389387593
H           -4.86864003188850        1.89352413864853        1.79939973961869
H           -5.49921518682327        3.51934138369657        1.87963797300352
H           -2.84773284183170        5.45336890908102        1.44686398662802
H           -3.23861250363440        5.71923055231732       -0.23930998016887
H           -4.51689337110650        5.77100603023121        0.93967168843190
H           -0.82803338324089        2.70107145899065        2.90462844710385
