72
 energy: 74.258638914564 xtb: 6.6.1 (8d0f1dd)
N           -1.71161989525407        2.70506026137526        2.36127029663486
C           -1.61466890884680        2.10217531157598        1.26554870485767
C           -2.74965003215969        2.02674809378162        0.28826267506127
C           -3.35727254400415        0.58202110251176        0.39215969508538
C           -4.34858024495986        0.16178487297243       -0.50240377307759
C           -4.87040486427887       -1.11955140945173       -0.48599367320591
O           -5.84487477624009       -1.58642695855830       -1.31922107254873
C           -6.39980488719897       -0.71860478868076       -2.27389427615643
C           -4.40397242513662       -2.05629805082830        0.46023227645271
O           -5.00623147003990       -3.27946388071256        0.42590298457752
C           -4.66586211838773       -4.23561395043867        1.39794764801820
C           -3.40035063487986       -1.66511099362298        1.32408841710900
C           -2.88168273455183       -0.37226896081092        1.28260384832213
C           -2.17830913394796        2.18533108006139       -1.14292298482549
C           -1.27282504318867        1.04442168527800       -1.67461963798898
C            0.07186341810188        0.97692846882863       -1.06264511944268
N            0.67461493288926       -0.15316110051339       -0.57815066314032
C            2.05185599353846       -0.10580137647473       -0.20713802719595
C            2.99630200503761       -0.58682281226425       -1.33137742521345
C            4.41883806015335       -0.47215916027136       -0.88373454646205
C            5.13447713233784        0.69388272546581       -1.08234913204886
C            6.44010889313596        0.81331453441610       -0.62701032670942
C            7.04874295334090       -0.23295575689632        0.04295813413874
O            8.31752321558809       -0.22341565013394        0.53609559301474
C            9.10491607611273        0.92325507679758        0.34431586769090
C            6.32658664336973       -1.42874529986806        0.25617819624479
O            7.00430031618894       -2.40485263256663        0.92403736198998
C            6.37107339145280       -3.63797445257621        1.14275983642822
C            5.02718486762838       -1.52884631883474       -0.20440179427551
C            0.02302822462102       -1.42436002577604       -0.67196287397571
C           -3.76899836608486        3.25580992321998        0.55947670809530
C           -4.60927772038221        2.94555226495754        1.76760552113864
C           -3.62668317182729        5.47176968871286        0.71359317692016
H           -4.72460031793675        0.85828433721419       -1.23267355249108
H           -6.87134159183142        0.15003462679328       -1.80386921908305
H           -7.15791581388553       -1.30788241912300       -2.79120974252901
H           -5.64989954046084       -0.37949051077510       -2.99705069441875
H           -4.86181829669681       -3.87527560820047        2.41321407913972
H           -5.30516223796031       -5.09491730211914        1.19956036091865
H           -3.61845064961987       -4.54845484132509        1.31870275095518
H           -3.02173171071730       -2.36219004385358        2.05698434199525
H           -2.10928219167807       -0.11619848026110        1.99103269335643
H           -3.01524709384947        2.28230736876115       -1.83910672176453
H           -1.61485236105670        3.12075640923578       -1.17525787260940
H           -1.79027833523668        0.09146740140510       -1.58695249091447
H           -1.13731821202874        1.25212166687092       -2.75017360156215
H           -0.70445596343885        1.60697363769619        0.88720186059511
H            0.66907329034792        1.87956016425464       -1.04213910397320
H            2.20052419959837       -0.72744551345389        0.68287109763090
H            2.31778016965569        0.92082398989736        0.05227219816779
H            2.82725759003338        0.02639559187584       -2.21890401267859
H            2.75566569917608       -1.62244560743137       -1.58102307276741
H            4.68071662035260        1.51958439676895       -1.60923152821857
H            6.97439702655060        1.73323513141581       -0.80447984759432
H            8.66841911872789        1.80032910396754        0.83397744040884
H            9.25723309824965        1.13922449981582       -0.71875425660854
H           10.06617765327749        0.69894573025727        0.80443118441981
H            7.10273056281693       -4.25429724887191        1.66333614333590
H            5.48071550901459       -3.52979372607198        1.77118415883763
H            6.09408660425328       -4.12607825995418        0.20185150362704
H            4.46782661824583       -2.43977523670924       -0.05517566728042
H           -0.13594572571080       -1.74037205955471       -1.71106659271665
H           -0.94682316692683       -1.38831176797632       -0.16936815227302
H            0.64132655077550       -2.16612935702675       -0.17343154543134
H           -4.28288099983871        3.53546724195016       -0.34870311893166
H           -4.00120089693281        3.13052436361905        2.65365713063810
H           -4.89318628244724        1.88174550252934        1.83553366594981
H           -5.52250048935300        3.52531500968189        1.81756805446001
H           -2.89914275650688        5.61823450778199        1.48641624829609
H           -3.27900576657720        5.93231663644903       -0.20725044087548
H           -4.58565614004781        5.93079389079179        0.96601273105330
H           -0.87523279216812        2.69048869925888        2.93944183022560
