72
 energy: 12.005383186953 xtb: 6.6.1 (8d0f1dd)
N           -1.59689132941616        2.76093478598242        2.29584682744351
C           -1.57931112699497        2.13656368922840        1.20538602382354
C           -2.75228532274325        2.09541827067036        0.27785494094813
C           -3.35830754015949        0.64975172323918        0.37904991180662
C           -4.32602409986571        0.21172291593512       -0.53504440070811
C           -4.85606915429930       -1.06744706075876       -0.50891915288234
O           -5.82947424640846       -1.53598361475118       -1.34383755398938
C           -6.39719505541109       -0.66250472725841       -2.28475973990221
C           -4.40103506811851       -1.99745820463432        0.45070415804551
O           -4.99986058365257       -3.22175386904693        0.41814371441662
C           -4.66533840033351       -4.16703939252687        1.40327213646148
C           -3.41156456386648       -1.59761297509627        1.32780606360606
C           -2.89153253792810       -0.30401480920534        1.27980829396531
C           -2.19056939579300        2.24985185452022       -1.16341826270485
C           -1.26863796082774        1.11730908546866       -1.67815054810842
C            0.03493478263408        1.05950560576344       -0.97745930887924
N            0.65245702802245       -0.09695854939926       -0.56205541091351
C            2.02595155751682       -0.06860652750063       -0.18087581792978
C            2.96554704690086       -0.56355127248534       -1.30372568500176
C            4.38846954275022       -0.45282803229709       -0.86123044691758
C            5.10515360842108        0.71234624873979       -1.06223750150218
C            6.41322175172886        0.82751991493730       -0.61479525799680
C            7.02280081627067       -0.22158097603298        0.04974068115844
O            8.29666760660201       -0.21774505086603        0.53208430597470
C            9.08689353534638        0.92515007606252        0.33183886612811
C            6.29835090152220       -1.41463883532462        0.26784769551439
O            6.97834898983156       -2.39414734500228        0.92874355136711
C            6.34360987484542       -3.62645193363267        1.14803855339216
C            4.99632249061114       -1.51103741065411       -0.18399170865944
C           -0.01440799271765       -1.36208804450368       -0.64438621299105
C           -3.80190878788534        3.32758871749828        0.57247715865287
C           -4.54320783438717        2.89376182386456        1.84613917405796
C           -3.50658899064997        4.93688151152974        0.63090349222598
H           -4.69002147196527        0.90181468224940       -1.27668315191152
H           -6.85852461582591        0.20551312805633       -1.80285174836446
H           -7.16598753096487       -1.24455378952752       -2.79336116636388
H           -5.65807088676370       -0.32234417034130       -3.01818910103828
H           -4.87239314948901       -3.79469506736294        2.41204728302123
H           -5.29900931321271       -5.03082832563504        1.20689332115499
H           -3.61523186036565       -4.47350816320279        1.33777929780479
H           -3.04723672271182       -2.28717571903480        2.07654089250801
H           -2.12846273390125       -0.04456932327380        1.99807509265962
H           -3.02432065205414        2.33471268726257       -1.86256118941091
H           -1.63619082746993        3.18972039992359       -1.18869780700485
H           -1.79127334852189        0.16408691561344       -1.61167239685896
H           -1.07702909944124        1.32604783802947       -2.74427787053853
H           -0.69880990916701        1.62758523118779        0.76260621847798
H            0.65715315171955        1.94273443486912       -0.99755672176055
H            2.16128573839521       -0.69580790740867        0.70759278571619
H            2.30646751536252        0.95362727901820        0.08169313703380
H            2.79600832526192        0.04610112431391       -2.19319512397323
H            2.71770898468136       -1.59895393919531       -1.54549911063003
H            4.65058721359775        1.54025390246605       -1.58508474288496
H            6.94955435653492        1.74534587231068       -0.79633419585710
H            8.65978307219991        1.80486497048004        0.82538292832027
H            9.22901622603023        1.13966868148927       -0.73294745830715
H           10.05132172379672        0.69502883223469        0.78221309828721
H            7.07873641936284       -4.24639441178797        1.65930851175570
H            5.45898602263996       -3.51907506445166        1.78489906301075
H            6.05731700579629       -4.10992253785263        0.20747787173651
H            4.43461492422310       -2.41971889797909       -0.03038850164047
H           -0.18070798669733       -1.68076511678776       -1.68140244787675
H           -0.98237567195730       -1.31381933508488       -0.13870630691693
H            0.59829898881311       -2.10937209058680       -0.14559904803193
H           -4.48200165826804        3.26162718445241       -0.27307368556618
H           -3.87601630822226        3.02106639686995        2.69163234875124
H           -4.85637650389267        1.84830355596293        1.84216693898441
H           -5.43335650228100        3.49321221971819        1.98145140517285
H           -2.74795722680063        5.15399891706649        1.37178609342262
H           -3.15848971758028        5.35945067803449       -0.32036937521875
H           -4.40135791984975        5.52525462654994        0.88715494329799
H           -0.73314752129827        2.73125271477059        2.83064701124877
