72
 energy: 18.530139776094 xtb: 6.6.1 (8d0f1dd)
N           -1.61581639416857        2.75535444433445        2.30781690671535
C           -1.58485622231500        2.13276238323669        1.21677838134383
C           -2.75104594268411        2.09336858596158        0.28186553333863
C           -3.36242294212702        0.64469285461895        0.38599238098471
C           -4.33013425737915        0.20487250558361       -0.52792663004509
C           -4.85744357615880       -1.07567621724556       -0.50494001610795
O           -5.83116691018644       -1.54401008703340       -1.34000531250779
C           -6.39693887962247       -0.67108845743482       -2.28263483427794
C           -4.40080634366000       -2.00728653905385        0.45210161410606
O           -5.00050222393122       -3.23132533544020        0.41927225342420
C           -4.66553108539332       -4.17856904029672        1.40240341138150
C           -3.40883745754979       -1.60802089250182        1.32668393709363
C           -2.89103508370696       -0.31319597392497        1.28098974793625
C           -2.19010411668966        2.24077871922253       -1.15895582577603
C           -1.27020671491509        1.10591628666965       -1.67684876752279
C            0.03991273361111        1.04673518522396       -0.98928409556661
N            0.65587698330952       -0.10619869641207       -0.56275759582149
C            2.03009790079152       -0.07473444007045       -0.18525040267740
C            2.97080828628224       -0.56729543793406       -1.30842668440818
C            4.39352239521379       -0.45621123492909       -0.86522575104581
C            5.11025279421103        0.70906584732029       -1.06573660608647
C            6.41785978113692        0.82492321288128       -0.61690454729812
C            7.02720671504876       -0.22375534818845        0.04856414130958
O            8.30030688733233       -0.21891300413989        0.53295132802459
C            9.09000880901412        0.92456732539220        0.33409377428570
C            6.30312439231754       -1.41717811826948        0.26577539451074
O            6.98275794522790       -2.39614720418239        0.92811617687708
C            6.34835442814186       -3.62858365535246        1.14717599295824
C            5.00156939937907       -1.51420735718647       -0.18763850878821
C           -0.00827073385744       -1.37213796272344       -0.64925432110240
C           -3.79349563701329        3.36952389533397        0.57207083271110
C           -4.55206379050204        2.91433590027904        1.82926790211336
C           -3.52458230218539        5.00904305187740        0.64417894726342
H           -4.69631856614318        0.89468203938901       -1.26867079765566
H           -6.85957299911512        0.19695757845881       -1.80211919206554
H           -7.16426439040573       -1.25375725346256       -2.79304461939830
H           -5.65596064531621       -0.33084738092260       -3.01417193704135
H           -4.87085712614202       -3.80811466110321        2.41223733276990
H           -5.30062806458412       -5.04124200805025        1.20567383606851
H           -3.61604636195465       -4.48689651402587        1.33496577762187
H           -3.04166645537069       -2.29950248057761        2.07244114449579
H           -2.12551575187663       -0.05625023786331        1.99747346019865
H           -3.02426938988157        2.32622773631982       -1.85792483817978
H           -1.63359741783425        3.17935896125561       -1.18723896769703
H           -1.79106395069030        0.15224338615177       -1.60703887824787
H           -1.08863569418693        1.31479389555153       -2.74554543992790
H           -0.69989829220958        1.62435700047635        0.78463663446487
H            0.65884695795300        1.93310009491953       -1.00486277248282
H            2.16799780936954       -0.70101616321165        0.70348073558132
H            2.30791095392551        0.94828564995578        0.07681199406091
H            2.80137760635349        0.04299828486225       -2.19754638758463
H            2.72382574982295       -1.60265201648621       -1.55163585838082
H            4.65580783783750        1.53649229276319       -1.58938505726865
H            6.95391308569757        1.74313402600508       -0.79751731787391
H            8.66142512297826        1.80394674489494        0.82695585067113
H            9.23389156064334        1.13937135880091       -0.73041532683103
H           10.05398632985032        0.69553411219975        0.78601947906521
H            7.08283197319176       -4.24799236116405        1.66007374992091
H            5.46269035491734       -3.52112102237675        1.78251961312050
H            6.06369100115443       -4.11283930540180        0.20651892297040
H            4.44025873369002       -2.42330587162758       -0.03500419480570
H           -0.17427205572865       -1.69007579544135       -1.68678440350457
H           -0.97633374532987       -1.32614585394229       -0.14363031788169
H            0.60549699325458       -2.11880877632552       -0.15110476365490
H           -4.45402944074160        3.31410027946930       -0.28885397393322
H           -3.89781652428121        3.04269287729446        2.68467166479657
H           -4.85415244231404        1.86497281159767        1.82358053766326
H           -5.45221988757551        3.49970328620447        1.95495410145354
H           -2.77233677758504        5.22974393177108        1.38916941079511
H           -3.17890738715940        5.45039280939267       -0.30086489193791
H           -4.43058438525529        5.58387441381724        0.90046260326060
H           -0.75662250127872        2.72563729006834        2.84953655577015
