72
 energy: 101.733605509953 xtb: 6.6.1 (8d0f1dd)
N           -1.78629751275735        2.60309835952586        2.36990884162940
C           -1.65647276117994        2.03160417853768        1.26763202165351
C           -2.77611436596041        1.85333763983498        0.25538353866626
C           -3.31233294789147        0.43093257549172        0.35622210041974
C           -4.33927544115217        0.06058434707362       -0.51301043863933
C           -4.88914838056082       -1.20537528016727       -0.47848028099887
O           -5.88115248519994       -1.65339657401167       -1.29716595370580
C           -6.40661874992872       -0.77553264069219       -2.26021960070932
C           -4.41684299594091       -2.14424827906755        0.46733768535198
O           -5.02783405447991       -3.36299341314615        0.43491683068478
C           -4.67496657388633       -4.31927897077380        1.40003329781585
C           -3.40655512201278       -1.77152163000965        1.33297332072914
C           -2.85544957205373       -0.49444672154882        1.27456495114703
C           -2.17579961259402        2.11127719189408       -1.14829929254878
C           -1.26437928413433        0.99594695779818       -1.67834593549882
C            0.04647064609949        0.96719077421176       -0.98019677878589
N            0.69559153432918       -0.17784084878378       -0.62593224622305
C            2.07504999223835       -0.13072096242335       -0.23619021914975
C            3.02118389343308       -0.60935980497232       -1.35692033206184
C            4.44498205885654       -0.49114399211373       -0.90239946432775
C            5.15657689867208        0.67641633442500       -1.09958191029690
C            6.45896077857783        0.80111280083871       -0.63608006318503
C            7.06662947732515       -0.24186589785332        0.03937227041352
O            8.33348351409924       -0.23101724468329        0.53648977115073
C            9.11820031320785        0.91982895758138        0.35324631879019
C            6.34588985330764       -1.44039255727392        0.24956780682107
O            7.02299460942342       -2.41405617539915        0.91775562501351
C            6.38918564784686       -3.64723256699764        1.14094512624512
C            5.04985461539111       -1.54541500552389       -0.21902102971205
C            0.05781762791819       -1.46487544057488       -0.69847305848189
C           -3.88127457115622        2.82805317100703        0.49544301291741
C           -4.63334107139218        2.78454023780267        1.76517185204258
C           -3.71958403388244        6.53629362862767        0.72958070752928
H           -4.71449142066823        0.79808583080238       -1.20342215709693
H           -6.87709596835861        0.09902129370961       -1.79928462055875
H           -7.16134326801387       -1.35073558402954       -2.79458110360510
H           -5.63860851645191       -0.44349774619471       -2.96735132702330
H           -4.85774196274788       -3.95644735932989        2.41713375189760
H           -5.31565494581913       -5.17802514664141        1.20467319247056
H           -3.62644418312261       -4.62386587572305        1.30685684240379
H           -3.03641822284962       -2.46562295279673        2.07173636681020
H           -2.07843489595907       -0.23399398373651        1.97755090723594
H           -3.00254768360291        2.23577625664334       -1.84665960053904
H           -1.62322009628852        3.05269470528047       -1.12184374820115
H           -1.78174324193134        0.04098873268491       -1.59333582406867
H           -1.10815011437222        1.18894082503747       -2.75135752992973
H           -0.69356505328152        1.61537813568708        0.86281188803846
H            0.65821973621324        1.85291682325131       -1.03264935954393
H            2.22124427712437       -0.75752172013319        0.65024435679591
H            2.33803664038454        0.89566759382956        0.02972836236770
H            2.85276691889572        0.00804007140203       -2.24079813953998
H            2.78528410031103       -1.64446745305248       -1.60825763964549
H            4.70360751423048        1.50231667003005       -1.62751987570137
H            6.99052317130490        1.72232084997581       -0.81327320785845
H            8.67411477600977        1.79528864017808        0.83900256903152
H            9.27828294930925        1.13595325555644       -0.70845736904015
H           10.07496070576081        0.69586644531509        0.82242386382502
H            7.12058611896381       -4.25851159970075        1.66739261463698
H            5.49577260627221       -3.53782632150365        1.76546953000715
H            6.11771365099160       -4.13969092661051        0.20089056454172
H            4.49034183199772       -2.45609190355382       -0.06881179065751
H           -0.09844793781244       -1.78107965800491       -1.73521179242761
H           -0.91025573454180       -1.44353535878300       -0.19175574469973
H            0.69023524946031       -2.19951117938752       -0.20450095283763
H           -3.84864424251105        3.76685830958225       -0.04275722042052
H           -3.99532717052163        3.10728484379385        2.59776322051852
H           -4.95530336895466        1.76686738432990        1.99396789840321
H           -5.49820285309054        3.44199727853036        1.71602372742648
H           -3.06547098958826        6.07371819558024        1.43421652933072
H           -3.34100342597783        6.89313257013742       -0.20283525860941
H           -4.74545031453162        6.69114948575191        0.98144817677547
H           -0.96565736793701        2.68994826040577        2.96158775291318
