72
 energy: 101.708154913434 xtb: 6.6.1 (8d0f1dd)
N           -1.77572518330021        2.61046722622987        2.36347031974290
C           -1.65404012222720        2.02890475989777        1.26556706489078
C           -2.77351400081885        1.84596998096240        0.25610812050077
C           -3.30676711164715        0.42334889612343        0.35170075926507
C           -4.33459366608953        0.05675976023801       -0.51839608555820
C           -4.88861282905318       -1.20688394014000       -0.48137226296777
O           -5.88300287047163       -1.65401777042452       -1.29904582992723
C           -6.40670960827905       -0.77380308825441       -2.26000615726259
C           -4.41799115811770       -2.14407859898565        0.46705428420648
O           -5.03029684677288       -3.36276083021247        0.43335696125439
C           -4.67623923346178       -4.31584921429461        1.40048739811962
C           -3.40949240635205       -1.77367710634449        1.33540514821978
C           -2.85488689091968       -0.49877446176207        1.27515464894599
C           -2.17763325773365        2.11342378697368       -1.14818058723444
C           -1.26223000187101        1.00162310682804       -1.67960163947572
C            0.04432943903862        0.97264594924656       -0.96926595834060
N            0.69487326222605       -0.17683950960163       -0.62235495534106
C            2.07418542364918       -0.13071224892880       -0.23298359405329
C            3.01845667884599       -0.60794444842942       -1.35627580099734
C            4.44228155055907       -0.48991799164990       -0.90258973296077
C            5.15406974223676        0.67771474243278       -1.09851619181248
C            6.45608980717918        0.80267256919322       -0.63402820309778
C            7.06396257543990       -0.24096347716218        0.04052147050989
O            8.33251416104236       -0.23179524752897        0.53616903263414
C            9.11577006694736        0.91975608706051        0.35192868875669
C            6.34277917275208       -1.43864460676149        0.25116851434076
O            7.02058518682791       -2.41286829748660        0.91940396382698
C            6.38626818173064       -3.64563786216639        1.14208677629695
C            5.04663503709220       -1.54332374289130       -0.21736142745280
C            0.05587893391977       -1.46328605170529       -0.69681188785500
C           -3.88605643789605        2.80667196250835        0.50610418387833
C           -4.62816935919122        2.77131240120753        1.78108068337501
C           -3.71896473555243        6.52840543247636        0.71643606039938
H           -4.70668915407469        0.79701433822926       -1.20768964779333
H           -6.87443750744007        0.10234768098447       -1.79821406554820
H           -7.16400083522977       -1.34346764420180       -2.79633808571419
H           -5.63789171247541       -0.44334704736732       -2.96682497385785
H           -4.86000820528234       -3.95014956590403        2.41675426483252
H           -5.31472025862502       -5.17653766276044        1.20789490191186
H           -3.62649519466364       -4.61657814177140        1.30994761278246
H           -3.04413009662335       -2.46676596548525        2.07742583582777
H           -2.07826677232270       -0.23534590752326        1.97778243085950
H           -3.00397460796597        2.24140053473169       -1.84673751684877
H           -1.62734186567251        3.05567427493414       -1.11450836786618
H           -1.77697668961979        0.04556509208954       -1.59647027896196
H           -1.10898064389187        1.19445177586026       -2.75348306597716
H           -0.68938413458635        1.61617709047881        0.85801024309102
H            0.66259257973946        1.85484469783057       -1.03338707701613
H            2.22617604875017       -0.75785691448063        0.65275730189319
H            2.33552335002915        0.89609972737765        0.03334075121798
H            2.84768598076961        0.01068138018720       -2.23867456746891
H            2.78114302048352       -1.64273549137636       -1.60660129695368
H            4.70035135441054        1.50415735733672       -1.62508598877329
H            6.98757311443257        1.72403631183044       -0.81101507393652
H            8.67222134891760        1.79503822760047        0.83865652408132
H            9.27385058285271        1.13676156763130       -0.71005520102374
H           10.07371809238273        0.69711249808108        0.81927340702459
H            7.11764260888174       -4.25819001584434        1.66722470866613
H            5.49339929152374       -3.53640907802869        1.76732363633156
H            6.11286205110015       -4.13744742304650        0.20220743477688
H            4.48566814337551       -2.45276364811633       -0.06545081854107
H           -0.10228310030861       -1.77467760101298       -1.73483992578199
H           -0.91294025650404       -1.44311335069552       -0.19106193081379
H            0.68687856663583       -2.20119776244606       -0.20550807294132
H           -3.88634938121023        3.72909243810438       -0.05908245957788
H           -3.98725239961602        3.09474206394429        2.61077990955491
H           -4.95502150134631        1.75628795962023        2.01070543809238
H           -5.49185694819802        3.42794199624796        1.73477976501201
H           -3.04900328067793        6.07101961219751        1.41309053784309
H           -3.35011318009455        6.92721818503233       -0.19955105001023
H           -4.73693460809963        6.71138384538053        0.98387920628835
H           -0.94612919526366        2.69540759958351        2.94311015321956
