72
 energy: 102.532089069469 xtb: 6.6.1 (8d0f1dd)
N           -1.78809199314780        2.58247902456322        2.38675718655008
C           -1.63960502323006        2.02352517686793        1.27913879875773
C           -2.75930759119663        1.85219449161723        0.26390245971112
C           -3.31005224295072        0.43681355418013        0.35851886859559
C           -4.34106346934661        0.06906652034654       -0.50632864127146
C           -4.88889751067303       -1.19648982591738       -0.46900752369436
O           -5.87498026806080       -1.65294177346974       -1.28881767596029
C           -6.40381952476451       -0.78452872086984       -2.25807100709524
C           -4.41122468009944       -2.13509053788122        0.47275660774616
O           -5.01506575549808       -3.35863757094107        0.43451569337798
C           -4.66856924670342       -4.32535476613156        1.39271613745857
C           -3.39945112134608       -1.76187146863565        1.33376023412370
C           -2.85552809480623       -0.48326262657985        1.27906847536284
C           -2.16480083315344        2.10904424478361       -1.14215810121981
C           -1.26163285805945        0.99156396977521       -1.68481959179829
C            0.05294867840587        0.96352899192187       -0.99373332158988
N            0.69295463329696       -0.18051018956832       -0.60490380204591
C            2.08123128994905       -0.13799868774519       -0.24043942275297
C            3.02512007337714       -0.61486861457636       -1.36591152846361
C            4.44999392135492       -0.49588402373224       -0.90980107207084
C            5.16220688472566        0.67135591014993       -1.10616605162409
C            6.46314354999021        0.79719945186247       -0.63952899001759
C            7.07009315999397       -0.24474015267065        0.03716664716203
O            8.33651206154646       -0.23277076158459        0.53640785335456
C            9.12042001578498        0.91862603645126        0.35539560070064
C            6.34947988817639       -1.44328398881924        0.24589292776324
O            7.02690700104509       -2.41709303957257        0.91419782295080
C            6.39189817787129       -3.64950149174970        1.13874162005762
C            5.05485596277995       -1.54945958868966       -0.22525166047588
C            0.06798866856680       -1.47619415310513       -0.70148836849903
C           -3.85191913707773        2.82814687322590        0.52134135704737
C           -4.62368057616484        2.78487746850938        1.77716900045899
C           -3.78173887893053        6.35357275777545        0.73860460196085
H           -4.71981013759904        0.80202886218727       -1.19896800786994
H           -6.88177492340650        0.08820912923188       -1.80208570749274
H           -7.15625365392863       -1.36402017640357       -2.79092600873182
H           -5.63726409146554       -0.45273267717448       -2.96696460444631
H           -4.85068322902419       -3.97308067441262        2.41341433948314
H           -5.31367488832078       -5.18052997733348        1.19067721337833
H           -3.62312811966644       -4.63773707183361        1.29796641016808
H           -3.02396926295478       -2.46092020602463        2.06456026260478
H           -2.08160186472391       -0.21485584880609        1.98120121231714
H           -2.99609635796993        2.23203752016825       -1.83512114479463
H           -1.61133657445177        3.05039550551909       -1.12399304598508
H           -1.77984194754864        0.03709905961147       -1.59122704602295
H           -1.12754024156631        1.18931400510936       -2.76164854645791
H           -0.67307448260305        1.62258087464633        0.88551552994550
H            0.65896881139318        1.85184253088348       -1.03479314287551
H            2.23348925541361       -0.76906852585911        0.64106525703664
H            2.34642348612687        0.88809831628894        0.02622910318465
H            2.85667551292585        0.00461391601357       -2.24790041579102
H            2.79258006842634       -1.65014422360056       -1.61854792571831
H            4.71090920201135        1.49859383714904       -1.63331164178656
H            6.99431049981262        1.71875040401610       -0.81542317479229
H            8.67370033245491        1.79355232791695        0.83974753572072
H            9.28266053234599        1.13506497994041       -0.70585988741524
H           10.07620813210254        0.69492505935715        0.82687061113976
H            7.12310740773836       -4.26010071026638        1.66617265338121
H            5.49779313338678       -3.53942972378971        1.76282340452636
H            6.12158869172142       -4.14306311464545        0.19885116501550
H            4.49519966085860       -2.45970262893179       -0.07353326202782
H           -0.08054230495552       -1.77879482141383       -1.74241111313855
H           -0.90408926306030       -1.47123785249309       -0.20150064529140
H            0.70462168147030       -2.21288580250590       -0.21451779239517
H           -3.92489431261523        3.70378019254217       -0.09601336290217
H           -3.99965169308433        3.10888923916115        2.61766274717782
H           -4.95303133209810        1.76615579234739        2.00491668071800
H           -5.48269891311317        3.44976295533934        1.69422050400783
H           -3.06516523665957        6.19734621364500        1.51162913261725
H           -3.39948586788394        6.78375343665836       -0.14989457286682
H           -4.78543122522984        6.58173373802903        1.01920566460917
H           -0.97038599654560        2.68269068694432        2.98081381167951
