72
 energy: 1.927860671734 xtb: 6.6.1 (8d0f1dd)
N           -1.55978147496382        2.76773433507500        2.27549188161326
C           -1.56926987828424        2.14359582207437        1.18493756819673
C           -2.75377275746304        2.09456422955193        0.27019034751798
C           -3.34530893628374        0.65452679086967        0.36322465735192
C           -4.31739141117442        0.22442958833281       -0.54821964071771
C           -4.85298636865389       -1.05151053224326       -0.51595493587199
O           -5.82554135024756       -1.52003122244256       -1.35054561972472
C           -6.39682766360411       -0.64512149005641       -2.28817118361145
C           -4.40016583719047       -1.97857151657136        0.44816670625448
O           -4.99743553392605       -3.20313574785372        0.41540005601614
C           -4.66516177268254       -4.14467313420306        1.40447259114243
C           -3.41544585297037       -1.57847849577496        1.33043940966075
C           -2.89051790343355       -0.28787568286917        1.27854140140390
C           -2.19262807246640        2.26908914464569       -1.17088830799853
C           -1.26693288517060        1.14032980922769       -1.67760939508683
C            0.02441564181171        1.08547794523930       -0.95291371047061
N            0.64514912553680       -0.07807084901729       -0.56114831751875
C            2.01737013476449       -0.05578544713059       -0.17270659289239
C            2.95485427584360       -0.55545196655336       -1.29487896205311
C            4.37829924067986       -0.44585358893336       -0.85322965623236
C            5.09508676630706        0.71896783570448       -1.05537984393705
C            6.40411119774496        0.83263552828112       -0.61077501158920
C            7.01399398106639       -0.21726395586417        0.05208553066841
O            8.28941752694194       -0.21553701375819        0.53033689835356
C            9.08078058381261        0.92619607185144        0.32746817945734
C            6.28866893341387       -1.40968928197237        0.27183476351748
O            6.96951591779569       -2.39032354102052        0.92948584849457
C            6.33414931764391       -3.62236169578160        1.14953281176985
C            4.98565542162787       -1.50474249412910       -0.17687867746749
C           -0.02704993773272       -1.34155477757576       -0.63555356033749
C           -3.82176882420780        3.24489701024039        0.57336245087403
C           -4.52659904209465        2.85292154424352        1.87712669515105
C           -3.46977313500267        4.79651223289992        0.60185597966450
H           -4.67860461477065        0.91657927366883       -1.28962539681858
H           -6.85579296687857        0.22277673347513       -1.80356666843850
H           -7.16835995263868       -1.22576026040983       -2.79352868085776
H           -5.66136848803735       -0.30491328162821       -3.02526003688863
H           -4.87628192959957       -3.76839442248302        2.41093451157087
H           -5.29681657061760       -5.00980735892306        1.20777606902919
H           -3.61405696721583       -4.44827145538181        1.34336385810644
H           -3.05600307929534       -2.26405148678016        2.08446476757713
H           -2.13412334403820       -0.02196306400793        2.00140012928007
H           -3.02532440461319        2.35265725493645       -1.87075031924874
H           -1.64147946229775        3.21089887060844       -1.19285444883723
H           -1.79342571701943        0.18813067895543       -1.61767386827839
H           -1.05518250829623        1.34684595024699       -2.73836097208214
H           -0.69598894799992        1.63496044207734        0.72128572425823
H            0.65276109864485        1.96215345731612       -0.98010331514617
H            2.14717468305729       -0.68493985528423        0.71510431223217
H            2.30383232722583        0.96475539463721        0.09119224809678
H            2.78562381043686        0.05321803282158       -2.18496530042968
H            2.70514416493759       -1.59079205410356       -1.53394865818925
H            4.64060993499149        1.54778029348604       -1.57708163688260
H            6.94106029642676        1.74960261508026       -0.79430510935967
H            8.65669844975113        1.80662918002940        0.82234450046161
H            9.21953807549858        1.14014257656352       -0.73783501369942
H           10.04602505469247        0.69382852330214        0.77484555998192
H            7.07065651846887       -4.24319050123043        1.65762617362245
H            5.45164811356692       -3.51509521762778        1.78947987254351
H            6.04465838619825       -4.10433296515937        0.20921456505852
H            4.42321332764854       -2.41272945520647       -0.02184672150589
H           -0.19465154984206       -1.66103051110484       -1.67156910264355
H           -0.99435555675322       -1.28943977411013       -0.12872267217902
H            0.58437742428804       -2.09006234225606       -0.13668442786647
H           -4.53704935348602        3.15966984683036       -0.24307367272322
H           -3.83522482551974        2.98114135524752        2.70268602421511
H           -4.86214423001017        1.81600475776135        1.88361220182279
H           -5.39613594253552        3.48035078370632        2.02851904662383
H           -2.69935186327028        4.99589382295259        1.33683411442740
H           -3.11617955939501        5.17758491552879       -0.36116260668645
H           -4.34050293587034        5.41108035621969        0.85875202466787
H           -0.68620865831655        2.74281756591394        2.79559937913649
