72
 energy: 102.044484731756 xtb: 6.6.1 (8d0f1dd)
N           -1.77820119096502        2.59813630224430        2.37206455669568
C           -1.65028461657652        2.02386491388679        1.26977145203449
C           -2.77002017140128        1.84493412713822        0.25624531396426
C           -3.30677560269683        0.42558739471003        0.35174223736653
C           -4.33701915756408        0.06056961663017       -0.51432386567612
C           -4.88897613995985       -1.20332022148631       -0.47495737518413
O           -5.88020929815678       -1.65471600013759       -1.29260790063155
C           -6.40565647427236       -0.78120504722720       -2.25829265825840
C           -4.41400206345616       -2.14092697430714        0.47071026361226
O           -5.02192459117577       -3.36232564399560        0.43320744271225
C           -4.67254472738491       -4.32289059397067        1.39577668148661
C           -3.40331854750351       -1.76934813294262        1.33457490903499
C           -2.85406916855547       -0.49246631671100        1.27643000870703
C           -2.16986472489623        2.11115898798120       -1.14661119484251
C           -1.25921413767017        1.00002118631464       -1.68555929205327
C            0.05044005537940        0.97093994073236       -0.98307286711536
N            0.69372508575001       -0.17676114567344       -0.61265257028373
C            2.07802987039417       -0.13428142664716       -0.23557452160263
C            3.02120387638349       -0.61171596361559       -1.36090903849775
C            4.44577028482499       -0.49311280961842       -0.90619768192237
C            5.15776416180297        0.67428366049397       -1.10246531647830
C            6.45923718931193        0.79957064731000       -0.63687973132029
C            7.06659371025987       -0.24308141473327        0.03904954569404
O            8.33485810860792       -0.23329630741075        0.53560677136377
C            9.11784815031002        0.91865316312859        0.35340915528173
C            6.34537463050060       -1.44094552233641        0.24875112116555
O            7.02288771011252       -2.41529060440911        0.91660303989192
C            6.38753886351049       -3.64745704944587        1.14054747852422
C            5.05029029050359       -1.54666669212647       -0.22156866619647
C            0.06196284630500       -1.46840971728957       -0.69761838806134
C           -3.87982029305818        2.81261242811996        0.50729110141514
C           -4.62989816533443        2.76402335696188        1.78072233319949
C           -3.77350356860569        6.45043442247685        0.72640348790432
H           -4.71064049017418        0.79928310790108       -1.20404261181127
H           -6.87791263813918        0.09478344300368       -1.80057142083088
H           -7.16074855373185       -1.35429309204625       -2.79345348785026
H           -5.63689716047947       -0.45229700156876       -2.96570731505069
H           -4.85502480051095       -3.96234456334642        2.41408322175562
H           -5.31546968938542       -5.17965269613036        1.19793278243575
H           -3.62476591896895       -4.62813853892985        1.30346719960399
H           -3.03319386394451       -2.46572178856000        2.07108452327869
H           -2.07963707234353       -0.22485700382797        1.97928157555755
H           -2.99856132881802        2.23745341721044       -1.84189972422354
H           -1.61782887192528        3.05283201865753       -1.11729516136773
H           -1.77489756809586        0.04379123574915       -1.59854457903741
H           -1.11299904982312        1.19710099729093       -2.76050259626479
H           -0.68665891693196        1.61429884714952        0.86585558967407
H            0.66141362182470        1.85828826926986       -1.02854258185198
H            2.22900690639617       -0.76461666994214        0.64731290890797
H            2.34211738841594        0.89182697931316        0.03166743601366
H            2.85173396297138        0.00752890324203       -2.24306839977046
H            2.78657608308293       -1.64666581156684       -1.61284658141739
H            4.70568183029683        1.50129546941798       -1.62945368909332
H            6.99040785206445        1.72103311291714       -0.81364875138363
H            8.67266629291068        1.79432550223012        0.83860886783166
H            9.27802076896699        1.13514984190014       -0.70824444367599
H           10.07468140614633        0.69503178581958        0.82263800699078
H            7.11867701872069       -4.25934440743650        1.66666671207920
H            5.49419356304021       -3.53740391629906        1.76560464464834
H            6.11563902210672       -4.14005463736981        0.20053972520998
H            4.49002767783152       -2.45650548573706       -0.06966866401834
H           -0.09123112290650       -1.77212989147107       -1.73787787542292
H           -0.90871314608363       -1.45720626066973       -0.19483768098996
H            0.69644577533963       -2.20577914673365       -0.20912451973187
H           -3.89436161041269        3.73766762620649       -0.06592745999411
H           -3.98498152244168        3.08497362728223        2.60865675162710
H           -4.96349657517584        1.74993003810574        2.01881220807685
H           -5.48539921955108        3.43327920732345        1.71737583328023
H           -3.05695242789209        6.13703501740033        1.45275110894298
H           -3.39146033863827        6.88126194368312       -0.16325292581338
H           -4.77997012732689        6.65739334006068        1.01363075507776
H           -0.95302953655489        2.69001784329662        2.95767769922394
