72
 energy: 86.321273673348 xtb: 6.6.1 (8d0f1dd)
N           -1.72982148199092        2.68869600097223        2.37210687761557
C           -1.62096864541172        2.09242867679062        1.27548550888594
C           -2.75153502964971        2.00037755995912        0.28789055396006
C           -3.35161295184994        0.56104433786059        0.38937552734386
C           -4.35029367479357        0.15031867490044       -0.49941101341150
C           -4.87312511625840       -1.12956467765322       -0.48234843750079
O           -5.84781536325019       -1.59514805818043       -1.31496892137983
C           -6.39985131603002       -0.72716688835423       -2.27165822336001
C           -4.40425090334672       -2.06663494455466        0.46207372010147
O           -5.00688827024418       -3.28974563359384        0.42719741328308
C           -4.66615520964888       -4.24743185291105        1.39717399290070
C           -3.39847159863559       -1.67851996314089        1.32447483803238
C           -2.87766924183557       -0.38757928179268        1.28255684258734
C           -2.17457383093837        2.17209914041956       -1.13984481316462
C           -1.27352388131807        1.03161382281130       -1.67453786659166
C            0.07820338242203        0.96132373755376       -1.07744000183122
N            0.67826920635034       -0.16090267424212       -0.58748417303431
C            2.05647138062995       -0.11135526616936       -0.21226056004759
C            3.00077207296205       -0.59081010949552       -1.33591313752199
C            4.42419437404678       -0.47556473067161       -0.88715732207419
C            5.13929968967698        0.69036380600181       -1.08590730764701
C            6.44468495864679        0.81056247085025       -0.62920084009328
C            7.05330344749512       -0.23495112598807        0.04180276067328
O            8.32055229957445       -0.22441069498834        0.53653031578109
C            9.10796807176158        0.92295914505442        0.34637859244974
C            6.33150510243589       -1.43148182136823        0.25410914671891
O            7.00856013501876       -2.40665486905563        0.92274442624156
C            6.37563554697406       -3.64011538139915        1.14171156645968
C            5.03238272928968       -1.53208388764124       -0.20794734735538
C            0.02896827484837       -1.43432958510012       -0.67699580329846
C           -3.77127089289103        3.17613232203030        0.55114734978768
C           -4.62124034719551        2.92921490567238        1.75738340139983
C           -3.65314819002275        5.61273541816983        0.72416935883857
H           -4.72881149337233        0.85062002979228       -1.22518371735212
H           -6.87253735776624        0.14166352414466       -1.80341421726976
H           -7.15645576925138       -1.31708271764005       -2.79047652629224
H           -5.64804432212073       -0.38837526742128       -2.99312482331607
H           -4.86007132423049       -3.88891539050034        2.41343362590810
H           -5.30684858912929       -5.10556900848225        1.19822227933513
H           -3.61932448232585       -4.56184159182433        1.31570485295529
H           -3.01721229514362       -2.37609242310782        2.05460230406740
H           -2.10509144876956       -0.12853049541745        1.98951150902102
H           -3.01266539374595        2.27274597548390       -1.83423741540773
H           -1.61204810531878        3.10834140955970       -1.16991352187608
H           -1.79146827678529        0.07942996367881       -1.58335370298771
H           -1.14456958320773        1.23837885265951       -2.75009559865448
H           -0.70256151770460        1.60538622983982        0.90693434429685
H            0.66862475467634        1.86849399775073       -1.04747636570874
H            2.20563983741360       -0.73295380538875        0.67738913401337
H            2.32087399389993        0.91543824637861        0.04761507655592
H            2.83255064792025        0.02292111651069       -2.22331903946709
H            2.76188718274386       -1.62652579211630       -1.58702297822502
H            4.68583415322704        1.51596607754447       -1.61319346783702
H            6.97834317093011        1.73093166977513       -0.80596337838347
H            8.66995550550050        1.79943852370102        0.83551022077747
H            9.26188479480501        1.13904194946073       -0.71636425533348
H           10.06853399503432        0.69918513549551        0.80816647199958
H            7.10687884529281       -4.25566602392494        1.66367191143871
H            5.48448667122434       -3.53179494967108        1.76893411282763
H            6.10016901821447       -4.12888622832426        0.20076307416886
H            4.47356001332498       -2.44341884498029       -0.05911681655334
H           -0.12819367900499       -1.74962696491263       -1.71600610567800
H           -0.94057297000140       -1.39998208443630       -0.17436008000950
H            0.64918160966997       -2.17424756721611       -0.17851315921844
H           -4.22841469348516        3.57871162387493       -0.34309343274032
H           -4.02379668633214        3.14272371105270        2.64717720114986
H           -4.90770393440985        1.86750341288874        1.85802330309700
H           -5.52979622928478        3.52201784419598        1.78470510795781
H           -2.92674405695333        5.70012860472795        1.50322274951556
H           -3.29803715499404        6.04805214261784       -0.19627311325209
H           -4.62194168147927        6.02587819167466        0.97770349151247
H           -0.89724139920368        2.68569220470282        2.95635180139580
