72
 energy: -5.288363939217 xtb: 6.6.1 (8d0f1dd)
N           -1.50828519606053        2.77156274709971        2.24386515956930
C           -1.55432438603696        2.15008413563365        1.15366618409996
C           -2.74875070633190        2.06745754430157        0.24960786109094
C           -3.32076858521485        0.64807462476698        0.33340988750563
C           -4.30554461654977        0.23981398656480       -0.57012026126841
C           -4.84961326138573       -1.02977295190869       -0.52701301773511
O           -5.82090348157819       -1.49695695652195       -1.36070908312827
C           -6.39601354689436       -0.61827828585105       -2.29321085045694
C           -4.39857783398090       -1.95149455425710        0.44425970962659
O           -4.99336284685197       -3.17625615478978        0.41152997440903
C           -4.66422093847195       -4.11118946050773        1.40682587087345
C           -3.42048781888641       -1.55258850746644        1.33437415770468
C           -2.88690570117507       -0.26851447127006        1.27632509362892
C           -2.19512571708427        2.29444402001208       -1.18312156985883
C           -1.26424115266937        1.17074042622347       -1.67121975361210
C            0.00855818208061        1.12113782004293       -0.91048772895964
N            0.63537511367211       -0.05193806622718       -0.56137169188022
C            2.00492294947668       -0.03661753177695       -0.16182496311374
C            2.93927074230088       -0.54355971406205       -1.28232799701201
C            4.36337889809310       -0.43604902822713       -0.84070034636497
C            5.08024222901330        0.72824174675918       -1.04476874059426
C            6.39079845707130        0.83988129845545       -0.60486501078992
C            7.00108822631527       -0.21112083354477        0.05568398124921
O            8.27888442516411       -0.21250526736330        0.52769800156403
C            9.07172484201233        0.92770459031997        0.32122145206901
C            6.27445049476406       -1.40298344617514        0.27779964450927
O            6.95681570154703       -2.38522215622574        0.93013533527111
C            6.32034923006392       -3.61673597124830        1.15156853018270
C            4.96990450210399       -1.49614552517927       -0.16603006288192
C           -0.04581451816502       -1.31129666974839       -0.62381256753279
C           -3.85504460945026        3.11780976626203        0.58077506138208
C           -4.50263142178321        2.79219260258520        1.92615484556325
C           -3.41317436912326        4.59409344247735        0.56056270678140
H           -4.66276249711916        0.93754643395425       -1.30930262131308
H           -6.85111128022660        0.24966334240094       -1.80450588845901
H           -7.17196280474391       -1.19573677374418       -2.79399329177727
H           -5.66608157090561       -0.27795174236831       -3.03588954348338
H           -4.88163801883270       -3.72855500670669        2.40960428413528
H           -5.29318753118494       -4.97791168498394        1.20949655007988
H           -3.61173445525923       -4.41062092211513        1.35226345816690
H           -3.06715630653437       -2.23053336231672        2.09607905062674
H           -2.14282512959250        0.01130250089903        2.00634193228141
H           -3.02573877873812        2.37782372898605       -1.88443054362824
H           -1.64906713098743        3.23956319114501       -1.20074207062169
H           -1.79924808011590        0.22212496422636       -1.62186922880382
H           -1.02045803184054        1.37107284565659       -2.72239505017513
H           -0.68739730872583        1.64791918893982        0.65903758631667
H            0.64780188513341        1.98573596701586       -0.95025224071587
H            2.12603121917349       -0.66819663547529        0.72510411846317
H            2.30123935049960        0.98123369010221        0.10477432138680
H            2.77107436033347        0.06408854270959       -2.17334054261202
H            2.68604808802139       -1.57850420279452       -1.51738988465287
H            4.62603946035172        1.55829247180638       -1.56531019485919
H            6.92850688677504        1.75555966145961       -0.79157073910888
H            8.65226352672202        1.80928969197341        0.81803303357795
H            9.20570126730156        1.14085858275115       -0.74480542914113
H           10.03804254062139        0.69204443504705        0.76430845950861
H            7.05897129142865       -4.23871671327222        1.65496630641649
H            5.44118928474301       -3.50943564765965        1.79635774126023
H            6.02602308642179       -4.09650883510062        0.21170449861592
H            4.40643539273181       -2.40331946270074       -0.00950296657937
H           -0.21496772436580       -1.63185960177372       -1.65796010985137
H           -1.01234814148577       -1.25323905279648       -0.11489127561644
H            0.56444050108116       -2.06046393871994       -0.12472567222456
H           -4.61647244088161        3.00587140635442       -0.19594200237378
H           -3.77746986284934        2.92051218897390        2.72257429484941
H           -4.87361229447327        1.76988909065407        1.95446826827053
H           -5.33964475168268        3.46216459735456        2.09951176803401
H           -2.62573372311636        4.76497756482649        1.28744362893796
H           -3.05800940799375        4.90708200608013       -0.42010393693218
H           -4.25225379552803        5.23951586022107        0.81841321320843
H           -0.61899055769981        2.76316302465073        2.73988315614592
