72
 energy: 58.948457508429 xtb: 6.6.1 (8d0f1dd)
N           -1.69201634889166        2.71964217886354        2.35069071463417
C           -1.60774755254664        2.11121840678821        1.25538995451251
C           -2.74795097623411        2.04965063662622        0.28782131899418
C           -3.36097164521633        0.60014747937989        0.39360455485248
C           -4.34534585155402        0.17216542334165       -0.50640934213556
C           -4.86757655231571       -1.10991201996544       -0.48976891851780
O           -5.84212023267596       -1.57739407480976       -1.32344975186131
C           -6.39947246418155       -0.70916120375909       -2.27593857516456
C           -4.40388585573845       -2.04617107157186        0.45847442017793
O           -5.00575684634261       -3.26940055582896        0.42475173360700
C           -4.66553183203218       -4.22387035843227        1.39891340777466
C           -3.40252576371949       -1.65256997549708        1.32412365392357
C           -2.88500357143341       -0.35838943121709        1.28264216337582
C           -2.18115936417155        2.19834441956046       -1.14661617899858
C           -1.27210611550531        1.05740609106964       -1.67524720615704
C            0.06495741892975        0.99243791237504       -1.04627039746850
N            0.67101476315054       -0.14486163241924       -0.57116365143993
C            2.04726838173600       -0.10008168208727       -0.20226543693298
C            2.99163089333378       -0.58296311722426       -1.32685013360014
C            4.41345259798704       -0.46880714432197       -0.88028189862547
C            5.12951305422543        0.69735979662242       -1.07881304958336
C            6.43538728319720        0.81603798190470       -0.62485193518239
C            7.04414484457436       -0.23096709920397        0.04406135481589
O            8.31430749497662       -0.22246424974184        0.53551440593366
C            9.10178580219890        0.92352176196699        0.34223447304159
C            6.32161098573115       -1.42608442727868        0.25817596719242
O            6.99997071924543       -2.40305404391820        0.92507071787524
C            6.36646154450428       -3.63587217586027        1.14367830512212
C            5.02190605636143       -1.52566914149234       -0.20083215695300
C            0.01684908366585       -1.41416667635783       -0.66697321485830
C           -3.77169242077278        3.32353896284036        0.56603580730168
C           -4.59631749869778        2.95245085171040        1.77995550807745
C           -3.60202887084972        5.34135347988042        0.70109966978954
H           -4.71916529953015        0.86596920228719       -1.24001084106246
H           -6.86962632788165        0.15928763926426       -1.80395856272655
H           -7.15919398695956       -1.29741464751871       -2.79198813570430
H           -5.65128285057562       -0.36978062680952       -3.00062971905946
H           -4.86332233980495       -3.86160279136218        2.41316094024630
H           -5.30322481119446       -5.08455293411138        1.20131438645764
H           -3.61746507305747       -4.53490074971646        1.32182332330001
H           -3.02696457144547       -2.34913593620992        2.05984657814104
H           -2.11309950687903       -0.10472749985361        1.99272661040660
H           -3.01719714166561        2.29169739736630       -1.84405861886809
H           -1.61765892049354        3.13335355813050       -1.18012558559816
H           -1.78954918311961        0.10390910841300       -1.59105176896269
H           -1.12863524842762        1.26536154129519       -2.75054347092005
H           -0.70451475939007        1.60968332061296        0.86634429141854
H            0.66875237823535        1.89051969332622       -1.03670894022057
H            2.19499909908977       -0.72209844792319        0.68787808562161
H            2.31510634451296        0.92617041933682        0.05701754041477
H            2.82185052779409        0.02971445409693       -2.21453153218721
H            2.74940570706131       -1.61852974575279       -1.57501332877174
H            4.67543645068199        1.52325653641073       -1.60513215254983
H            6.97024115944354        1.73552186058874       -0.80303794903830
H            8.66681713034008        1.80109537088030        0.83256583260971
H            9.25242081197198        1.13945367948259       -0.72114271726789
H           10.06369724788383        0.69845135050009        0.80064461661311
H            7.09863172293824       -4.25293183062060        1.66273409735886
H            5.47699559447485       -3.52785515584282        1.77345694582883
H            6.08784258074149       -4.12326814409693        0.20283232429609
H            4.46200663867570       -2.43614675650157       -0.05101125595944
H           -0.14359510204272       -1.73082311681525       -1.70604874651396
H           -0.95316940144261       -1.37624268684209       -0.16447484054064
H            0.63335485419599       -2.15761131246478       -0.16830607231401
H           -4.32921060259809        3.49110613584909       -0.34483078663266
H           -3.97936862414681        3.11603982323887        2.66124146417606
H           -4.87940122804650        1.89038001328477        1.81556527896208
H           -5.51256036847429        3.52337774521525        1.84980082597005
H           -2.87321359420218        5.53273229365302        1.46710066080033
H           -3.25919780784688        5.82097070279716       -0.22086617052925
H           -4.54960219816012        5.84317414125830        0.95340958279790
H           -0.85185281380889        2.69516060950117        2.92237747584023
