72
 energy: 98.105522159544 xtb: 6.6.1 (8d0f1dd)
N           -1.76480575755807        2.65655349810972        2.38876296078133
C           -1.63117154265484        2.06840665098160        1.29192485649555
C           -2.75283762276433        1.95183700382789        0.28510033932123
C           -3.33989650749139        0.52202752473391        0.38270431959100
C           -4.35256632415237        0.12684732040354       -0.49437225579723
C           -4.87868147704212       -1.14960685425348       -0.47516937646037
O           -5.85456617300439       -1.61208379873110       -1.30602838859676
C           -6.40049173810098       -0.74432123881780       -2.26730407999018
C           -4.40537925057057       -2.08753693663984        0.46604261559556
O           -5.00861870775814       -3.31020627633661        0.43011977624993
C           -4.66595500954472       -4.27087005099091        1.39564360773954
C           -3.39596802896594       -1.70487566609961        1.32611096592344
C           -2.87012384244732       -0.41751031710304        1.28232980275240
C           -2.16925736812495        2.14808794003828       -1.13598654296505
C           -1.27437889528253        1.00916938577795       -1.67373791985764
C            0.08196681320702        0.95094157054712       -1.08817573893852
N            0.68317556510636       -0.17041307658244       -0.60600333102343
C            2.06309815395468       -0.12080687750771       -0.22316184630630
C            3.00943936770827       -0.59828894206545       -1.34516759553671
C            4.43356904948885       -0.48207892087754       -0.89396115337584
C            5.14828475641534        0.68378183473635       -1.09275527927966
C            6.45302665617263        0.80520468839430       -0.63386116506525
C            7.06161576545767       -0.23899760809511        0.03904185575872
O            8.32682416173510       -0.22658116195586        0.53714957083717
C            9.11379841680903        0.92205102131986        0.35031363743873
C            6.34043660826968       -1.43665117312991        0.24970654719955
O            7.01692254184774       -2.41037785555999        0.91977939522610
C            6.38476438094826       -3.64435244860554        1.13949835438123
C            5.04198128704774       -1.53831271190077       -0.21469764002130
C            0.04071299710423       -1.44973626104469       -0.68804429967823
C           -3.78395381647569        3.05231382525878        0.53615105253071
C           -4.63474892912308        2.89286568843258        1.74658162943836
C           -3.70100203480952        5.84920996173763        0.74162398036543
H           -4.73635659534245        0.83438030044479       -1.21056494236893
H           -6.87604752300563        0.12499167651882       -1.80314502614475
H           -7.15385661202458       -1.33574914658833       -2.78904942614424
H           -5.64506554579296       -0.40596219356595       -2.98541002760920
H           -4.85574017768333       -3.91604111483295        2.41392161519327
H           -5.30894910071483       -5.12698918853805        1.19537903210389
H           -3.62008194673152       -4.58718980268725        1.30897697162660
H           -3.01139724457910       -2.40409149339958        2.05187876139568
H           -2.09753686240035       -0.15433374294890        1.98737559619818
H           -3.00866469745935        2.25502404295440       -1.82716941103456
H           -1.60695262761419        3.08456429287142       -1.16112476472583
H           -1.79101588981662        0.05630325628988       -1.57619302298478
H           -1.15524154982201        1.21083879076146       -2.74874451107319
H           -0.69384213062401        1.60301636170470        0.94185797318161
H            0.66967483092691        1.85442409724640       -1.05474573899813
H            2.21360718897766       -0.74301049295701        0.66601421413001
H            2.32698038452132        0.90561140598665        0.03830379134558
H            2.84286281850086        0.01637791526558       -2.23223167081916
H            2.77339136741101       -1.63411975278636       -1.59848504895481
H            4.69549396598706        1.50907387132562       -1.62119506900298
H            6.98569365734263        1.72630465249856       -0.80942859578479
H            8.67281828596007        1.79752668698026        0.83825381306398
H            9.27121835952163        1.13850008738424       -0.71176681108756
H           10.07284007799234        0.69928062120308        0.81575230563334
H            7.11541587220759       -4.25805986451256        1.66430989413317
H            5.49205676581861       -3.53592243619828        1.76445397939068
H            6.11228017910546       -4.13477003289852        0.19862468968846
H            4.48422885610740       -2.45051234027262       -0.06687514560875
H           -0.11285819237730       -1.76687937558496       -1.72645885518338
H           -0.92846899544242       -1.42164582757442       -0.18468400385083
H            0.66505112495036       -2.18643149331954       -0.18909896541273
H           -4.10852722713435        3.66045690546079       -0.30371600892537
H           -4.06335675390403        3.16324163942405        2.63820862816644
H           -4.92726053330467        1.84049299864500        1.90011438529295
H           -5.53510491196719        3.50955145638922        1.72441754074181
H           -2.98263175780555        5.85665901933217        1.53217426489136
H           -3.33375308521490        6.26235656043674       -0.17256713829188
H           -4.68409721895791        6.19516444173765        0.99617054629138
H           -0.94316242539182        2.67669951519040        2.98806578490055
