72
 energy: -3.944719257236 xtb: 6.6.1 (8d0f1dd)
N           -1.52496225744965        2.77080391177364        2.25486135129859
C           -1.55931467543114        2.14851242908606        1.16416977895254
C           -2.75069318493260        2.07798676387015        0.25642847213276
C           -3.32923147573857        0.65113111884672        0.34360119384205
C           -4.30922861997550        0.23474947243554       -0.56292056562487
C           -4.85075125162264       -1.03692878300104       -0.52333959163182
O           -5.82234997570044       -1.50463923158101       -1.35744257406822
C           -6.39626431076457       -0.62719307726683       -2.29155658386800
C           -4.39926900321198       -1.96043341387039        0.44562124613118
O           -4.99474274101171       -3.18518284846773        0.41279396063047
C           -4.66458256451393       -4.12238660753728        1.40603996475198
C           -3.41916311096654       -1.56093419668965        1.33326486537392
C           -2.88831621278107       -0.27462487402769        1.27705218634435
C           -2.19440680407878        2.28635889339005       -1.17929090989545
C           -1.26500885660426        1.16167697264791       -1.67483871935131
C            0.01408024469873        1.11009589014686       -0.92624518357648
N            0.63837017414034       -0.06002281331693       -0.56095614688341
C            2.00903306636760       -0.04293156121935       -0.16517871015214
C            2.94438710508970       -0.54749874286172       -1.28635863088695
C            4.36836687315237       -0.43926281409738       -0.84498681140438
C            5.08526034124941        0.72519932947871       -1.04845449860895
C            6.39529581774897        0.83746421297499       -0.60686753554990
C            7.00541848154848       -0.21316060657554        0.05452302706652
O            8.28239812747443       -0.21350542248845        0.52860086412188
C            9.07477977105137        0.92720052308448        0.32326502768726
C            6.27922223528657       -1.40521797870995        0.27582040621840
O            6.96099889179062       -2.38689754975352        0.93005164862783
C            6.32490585506214       -3.61862460024752        1.15090198817577
C            4.97520331634386       -1.49898452143959       -0.16973507108368
C           -0.03955229835846       -1.32117074272719       -0.62733865295474
C           -3.84325869713273        3.16003434192247        0.57774768916275
C           -4.51041377146722        2.81169793547599        1.90937882011036
C           -3.43235490306921        4.66049712327641        0.57332354018829
H           -4.66756373560187        0.93037479874448       -1.30311091293953
H           -6.85249052043149        0.24071532383802       -1.80406152595613
H           -7.17080592922464       -1.20565348011573       -2.79389147655019
H           -5.66439931412020       -0.28689958472540       -3.03227096398637
H           -4.87989106753328       -3.74192333638786        2.41005268820363
H           -5.29439940170082       -4.98862651548151        1.20897069674132
H           -3.61255154720309       -4.42322735780266        1.34933367212159
H           -3.06376730120422       -2.24152967970888        2.09236936297665
H           -2.13975242907360        0.00037686805717        2.00439655913223
H           -3.02573990397632        2.36948944923941       -1.87999710434602
H           -1.64676431928703        3.23038230558572       -1.19845743555033
H           -1.79662405571530        0.21134927055276       -1.62169304525144
H           -1.03199045534509        1.36423071972169       -2.72928884249002
H           -0.69057039452203        1.64459472430491        0.67960334992249
H            0.64926754837396        1.97903276361211       -0.96075978376071
H            2.13307553330625       -0.67390454379579        0.72198955343204
H            2.30210290384706        0.97574914052861        0.10051884695783
H            2.77570466689896        0.06039926501910       -2.17708742151012
H            2.69250568016366       -1.58265116926672       -1.52268645822244
H            4.63100118322797        1.55495656351551       -1.56922033426963
H            6.93275483224000        1.75359703011401       -0.79246717873342
H            8.65373766645131        1.80834789399571        0.81947461552045
H            9.21027235775060        1.14060767062434       -0.74251996754078
H           10.04078498094523        0.69263303844441        0.76770679790992
H            7.06279187803556       -4.24029367501541        1.65581999870013
H            5.44460418144721       -3.51134685352715        1.79402345667619
H            6.03221927009823       -4.09903289275449        0.21082572434106
H            4.41209166981039       -2.40641048246803       -0.01349479721318
H           -0.20818403804527       -1.64139573618842       -1.66215515586185
H           -1.00619352350358       -1.26519460585967       -0.11903384249344
H            0.57098245572110       -2.07033770130530       -0.12835683906642
H           -4.59042862154415        3.05667414510324       -0.21083165408172
H           -3.79646602518732        2.94025821685625        2.71547324144035
H           -4.87015256982377        1.78472104483965        1.93023348254237
H           -5.35815406896950        3.46777087685803        2.07578061033142
H           -2.65073445462217        4.84154550295540        1.30289249393469
H           -3.07691764479924        4.99716374227493       -0.40133508534692
H           -4.28114355507435        5.29650044520658        0.83111301165926
H           -0.64093093684746        2.75722716159598        2.75939219256785
