  72
        -99.28808699
 N         -1.8065900240        2.6809783860        2.6182553982
 C         -1.7724474744        2.0456287878        1.5419206593
 C         -2.8880493523        2.0084615354        0.5347549160
 C         -3.4590416400        0.6007303374        0.4572357397
 C         -4.3628020291        0.2772420787       -0.5572566665
 C         -4.9221117218       -0.9848747795       -0.6537738369
 O         -5.8088760098       -1.3740193501       -1.5971673970
 C         -6.3093594514       -0.4184484078       -2.5015640379
 C         -4.5631856640       -1.9824974916        0.2897882981
 O         -5.1476105373       -3.1878866489        0.1124021853
 C         -4.9043352852       -4.2073934216        1.0519376026
 C         -3.6698586769       -1.6554052835        1.2959799525
 C         -3.1278644309       -0.3779123515        1.3795369054
 C         -2.2439505129        2.3916035383       -0.8237885546
 C         -1.3744791551        1.2878513140       -1.4532253940
 C         -0.0730215170        1.0983586503       -0.7748848625
 N          0.4797244078       -0.0820953364       -0.4688336374
 C          1.8739143722       -0.1533420893       -0.1108391436
 C          2.7501768456       -0.5549977423       -1.3170218928
 C          4.2048658151       -0.3672348986       -0.9991797207
 C          4.8233176108        0.8469841248       -1.2708552620
 C          6.1641762652        1.0355481190       -0.9768730550
 C          6.8773589579       -0.0010748332       -0.4086645733
 O          8.2812308288        0.1180765531       -0.1340721171
 C          8.7776608086        1.3557765911        0.4637979916
 C          6.2753279098       -1.2262195136       -0.0992475209
 O          7.1009556027       -2.1412294397        0.4833036744
 C          6.5826215559       -3.4181868534        0.7962409066
 C          4.9312379132       -1.3963473429       -0.4014494674
 C         -0.2305226897       -1.3256931320       -0.6412718088
 C         -4.0526520060        2.9879963362        0.8635038210
 C         -4.7667881131        2.5930992060        2.1541352660
 C         -3.6080027932        4.4457321302        0.9459741668
 H         -4.6417156866        1.0308379518       -1.2746709840
 H         -6.7947288218        0.4120367384       -1.9798707516
 H         -7.0470371104       -0.9450057261       -3.1039052444
 H         -5.5218048315       -0.0300610962       -3.1560214400
 H         -5.2095014618       -3.9069147530        2.0587512815
 H         -5.5092779051       -5.0524193338        0.7290409107
 H         -3.8494405767       -4.5011707912        1.0625423533
 H         -3.3941172468       -2.3868352187        2.0383410154
 H         -2.4600589435       -0.1519931413        2.1965629936
 H         -3.0367731865        2.6405645557       -1.5284249506
 H         -1.6349659604        3.2857126400       -0.6842567564
 H         -1.9401686621        0.3592790747       -1.5020894569
 H         -1.1658007341        1.6047767369       -2.4842754284
 H         -0.8900251141        1.4771334597        1.1901397119
 H          0.5562129998        1.9662560691       -0.6495372157
 H          2.0047178104       -0.8784889795        0.6969444875
 H          2.1999430815        0.8240791807        0.2514615099
 H          2.4783499978        0.0782015603       -2.1632721048
 H          2.5492674081       -1.5928689948       -1.5842644583
 H          4.2648284757        1.6474200495       -1.7293226688
 H          6.6564787806        1.9700301530       -1.1904690374
 H          8.1604387454        1.7004230612        1.2832412687
 H          8.9569855312        2.0879800710       -0.3103775317
 H          8.5144076986       -0.6259326863        0.4587039129
 H          7.4153580526       -3.9761747179        1.2190070191
 H          5.7785163606       -3.3489375441        1.5335357707
 H          6.2224939533       -3.9271517996       -0.1010527738
 H          4.4425574520       -2.3333969480       -0.1890730637
 H         -0.3684451208       -1.5656964373       -1.6985961765
 H         -1.2112037624       -1.2712847041       -0.1631944893
 H          0.3363990410       -2.1278213379       -0.1748433221
 H         -4.7723361208        2.9004241457        0.0414097496
 H         -4.0913141104        2.6917250259        2.9975145030
 H         -5.1254286963        1.5677858850        2.1061923074
 H         -5.6199676793        3.2473263921        2.3134054059
 H         -2.8726281398        4.5708019363        1.7344848185
 H         -3.1903061751        4.7966473446        0.0059683822
 H         -4.4680443245        5.0675340102        1.1806418831
 H         -0.9775656787        2.6540581488        3.2043766905
