25
 energy: -42.586966630933 xtb: 6.6.1 (8d0f1dd)
C            3.13713925581226        1.18931696492271        0.27648379489002
N            2.33431763686982        0.10415311258119       -0.21700529638750
C            2.63038006817344       -1.25488586247025       -0.19202384179475
N            1.43773675274983       -1.95549108458358       -0.16155055925266
C            0.41968546652171       -1.07657684520018       -0.12013817690791
C            0.94178836256937        0.20636727068337       -0.15338252001921
C            0.15374201410112        1.37059582672077       -0.14765918901951
O            0.52202517696460        2.54388755340059       -0.21249329730101
N           -1.23516075695398        1.04247123838268       -0.06669598854575
C           -2.16246424527093        2.15853269940274       -0.04097577059718
C           -1.79059367832604       -0.19725086545363        0.00140002617015
O           -2.98799231564063       -0.37925463389913        0.08448459995021
N           -0.91887992682623       -1.30280683871374       -0.02938599300571
C           -1.46144362654013       -2.63794669440375        0.04669326909275
H            2.99660421052844        1.38152824002930        1.39361222471796
H            4.16847198755127        0.97780196509001       -0.02243832238638
H            2.81710557117152        2.09059915893619       -0.25008753727529
H            3.59513955547247       -1.69771846830579       -0.30449445082525
H           -1.56408084806408        3.06764502430459       -0.04874686743091
H           -2.81073691146341        2.12494200062356       -0.91559557654348
H           -2.77834737112526        2.11384169766842        0.85665239114040
H           -1.08337106167204       -3.15918772279880        0.93047578131540
H           -1.21066298764431       -3.20675712604693       -0.85097741129497
H           -2.54395034731379       -2.53837273372611        0.11972040779583
H            1.37462547984555       -2.95981002216206       -0.14919890958866
