25
 energy: 0.000000000000 xtb: 6.6.1 (8d0f1dd)
C            3.23720163006194        1.16630919979326        0.08434469647475
N            2.29877817382611        0.07527477071623        0.03981603040599
C            2.58028210190900       -1.21425402444508        0.03006176031096
N            1.43813958087363       -1.93419271955128        0.00098261760884
C            0.39035688448383       -1.05887472636071       -0.00790371836672
C            0.93510056364412        0.21347819449412        0.01709077491437
C            0.09450143893243        1.40504303904423       -0.00410947031874
O            0.49712751527797        2.54126714362870       -0.00342325688240
N           -1.25076640035757        1.06271879480407       -0.03085478223738
C           -2.21907211982101        2.15522099834493       -0.05001256985998
C           -1.81739487048744       -0.20012725993278       -0.04692818574614
O           -2.99983886758376       -0.37846417018721       -0.07008878229737
N           -0.92618586207120       -1.30210215599479       -0.03682761578324
C           -1.46982264913417       -2.64643102187190       -0.06029820460571
H            3.71247264356769        1.21471455160235        1.06488849150277
H            4.00791497605742        1.03430808813993       -0.67357694370751
H            2.69910007168542        2.09770118228144       -0.09130154882931
H            3.56654120610678       -1.63682992603973        0.04233140067262
H           -1.67107961066214        3.09322851271934       -0.02552706933167
H           -2.82428953597071        2.09428624779827       -0.95318082946668
H           -2.87644029173232        2.07745725625962        0.81450067533302
H           -1.17061996399332       -3.19584890659852        0.83242232437030
H           -1.14560257411436       -3.17511610292205       -0.95688275822323
H           -2.55549792440841       -2.55659984320617       -0.07459039797972
H            1.38130855184625       -2.94313852034425       -0.01389874181052
25
 energy: -4.053219334662 xtb: 6.6.1 (8d0f1dd)
C            3.23040062976727        1.17621763236689        0.10546059970253
N            2.30871756421294        0.08976457950795       -0.00792732504519
C            2.60318656302768       -1.23719382807067       -0.01764130559979
N            1.43222471333813       -1.94586708487837       -0.03440382444660
C            0.40097392412136       -1.06138880116268       -0.03271634685717
C            0.93413772352927        0.21674093998342       -0.02869851349764
C            0.11132667714644        1.39320723197791       -0.03500602483798
O            0.51179469314275        2.55718597509297       -0.04308306221813
N           -1.25060492821133        1.05216295620590       -0.03583948139792
C           -2.20741946780181        2.15162820883288       -0.04414892668807
C           -1.81516210358214       -0.19881195406322       -0.03616493939778
O           -3.01204797095376       -0.37845007499266       -0.03759171475718
N           -0.92950739854825       -1.30242282840674       -0.03491259304884
C           -1.46963929290868       -2.64327260338199       -0.03861111665189
H            3.51635155087063        1.27453737977808        1.19459120397470
H            4.07956893738278        1.01624834960747       -0.57676463707425
H            2.70617927128338        2.09567765082225       -0.15077282343919
H            3.58157937223104       -1.66244841627240       -0.01887247680761
H           -1.64520664108130        3.08299462811422       -0.02660189190401
H           -2.82262188695984        2.09829202969399       -0.94175510136843
H           -2.85572459046687        2.08331522916945        0.82869068972767
H           -1.15117244246464       -3.18911596921098        0.85166660856443
H           -1.15756820087931       -3.17950526974087       -0.93678525413660
H           -2.55474428700463       -2.55068755745434       -0.03430746434650
H            1.36719225874514       -2.94977980134645       -0.04077038230126
25
 energy: 1.195198905888 xtb: 6.6.1 (8d0f1dd)
C            3.21239535029931        1.18388252104216        0.14384210632617
N            2.31745693973452        0.09866123186313       -0.08976888704199
C            2.62478393814168       -1.26220892042193       -0.09270734995145
N            1.42461597080222       -1.95537465477860       -0.08235371342591
C            0.41285383333180       -1.06667264634578       -0.06684850507620
C            0.93232473487602        0.21714759771257       -0.08846791670797
C            0.13502637089098        1.37360251435185       -0.07570494084880
O            0.52268768091430        2.55884462261082       -0.10133470944463
N           -1.24953776340781        1.04186193131584       -0.04064792372078
C           -2.19001866838750        2.15094342712903       -0.03672859644387
C           -1.80518872949138       -0.19575281888878       -0.01943298667167
O           -3.01096945944386       -0.37801249714061        0.00926041028566
N           -0.93168044028794       -1.30172520177522       -0.03037358523793
C           -1.46801064875196       -2.63896553692790       -0.00780847829858
H            3.24115064555089        1.36314006230308        1.35759612385575
H            4.17612717322567        0.98681454667009       -0.40638231134558
H            2.72818253437247        2.09457490784847       -0.23955684161714
H            3.59468191016072       -1.68813479449444       -0.11491005362804
H           -1.61110881765223        3.07401754478567       -0.02885887662654
H           -2.81895795201845        2.10596299303455       -0.92606124119750
H           -2.82658608008628        2.09321029985194        0.84609820680076
H           -1.12497943528115       -3.18000835964470        0.87878234666597
H           -1.17615582163165       -3.18644698750940       -0.90822497405865
H           -2.55254992087765       -2.54430547348814        0.02298568475171
H            1.35567132295356       -2.95602770693165       -0.07535909119553
25
 energy: 6.885949634953 xtb: 6.6.1 (8d0f1dd)
C            3.17610469464148        1.18940916970819        0.19627383144575
N            2.32324577947493        0.09845953569361       -0.15964038380165
C            2.63596390286878       -1.27679652971586       -0.16289764570327
N            1.42509620742461       -1.96221093158510       -0.12872493757329
C            0.42079783782183       -1.07435298612451       -0.09706936768442
C            0.93443469370813        0.21224426086909       -0.13596965539104
C            0.15191194431465        1.36517767274942       -0.11712134111450
O            0.52873508250923        2.55598298914757       -0.16003797016930
N           -1.24488080938837        1.03967566688623       -0.05072507721538
C           -2.17333107652968        2.15457189724464       -0.03696855199886
C           -1.79514949886276       -0.19437294495885       -0.00449609122335
O           -3.00278968242495       -0.37863358098915        0.04933873738022
N           -0.92845485880876       -1.30236387365057       -0.02658760616559
C           -1.46499067509945       -2.63725809165503        0.02413077290001
H            3.03900898026699        1.40976229103371        1.45933715567467
H            4.20662676577046        0.97651607815512       -0.23952871619292
H            2.75706634506428        2.09777209441396       -0.27163589930987
H            3.60345179406788       -1.70465567134646       -0.20933673613011
H           -1.58108980651756        3.06973576536189       -0.03937587236736
H           -2.81386185373003        2.11379832166928       -0.91831661549835
H           -2.79799483825979        2.10510823323347        0.85504516891590
H           -1.10024889547829       -3.16952719072884        0.90848380052713
H           -1.19508438807321       -3.19574744059835       -0.87731138818281
H           -2.54891726607361       -2.54017552448119        0.08096132281356
H            1.35656428924952       -2.96309060816023       -0.11079303778793
25
 energy: 7.080181629060 xtb: 6.6.1 (8d0f1dd)
C            3.13984719371937        1.18744276080343        0.23831907255096
N            2.32949374147498        0.09707192110874       -0.20453764095896
C            2.63877261966588       -1.27777985755508       -0.20773851735570
N            1.43141075122906       -1.96321553090065       -0.16170994919414
C            0.42471973624915       -1.07930497958799       -0.11710724672119
C            0.93999761790765        0.20658425832808       -0.16313964093531
C            0.16068099601304        1.36585778968089       -0.14944592132913
O            0.52965489131844        2.55000917502999       -0.20522343788729
N           -1.23779584835460        1.04227560083716       -0.06297163504255
C           -2.16083200246699        2.15917913916561       -0.04179500248451
C           -1.78658398780017       -0.19415616416183        0.00417569167853
O           -2.99077069191255       -0.37838844524021        0.07651205603695
N           -0.92149179649212       -1.30267812221037       -0.02544640066262
C           -1.46044134629293       -2.63672590289857        0.04913210012160
H            2.91722374222538        1.41395870829164        1.49822700545859
H            4.18303652322078        0.97587186123398       -0.11900118467550
H            2.78469493921266        2.09545361146862       -0.25438271539102
H            3.60611168722709       -1.70913576612011       -0.28213419587696
H           -1.56234883595709        3.06955292837197       -0.05179083366638
H           -2.80947181135260        2.12074169833331       -0.91686277649583
H           -2.77644500902096        2.11425368015983        0.85634026819152
H           -1.08073504652161       -3.16006725823285        0.93191483364981
H           -1.20913521211781       -3.20412835996870       -0.85158599869439
H           -2.54320654320058       -2.53777419097759        0.12553903813222
H            1.36582835996276       -2.96586995278722       -0.13825307230146
25
 energy: 4.104558654202 xtb: 6.6.1 (8d0f1dd)
C            3.11538305365210        1.18055519282909        0.26086030466457
N            2.33463959965918        0.09927560175463       -0.23110821723882
C            2.63442929258390       -1.26647627020693       -0.21903007859309
N            1.43859681480752       -1.95837794128718       -0.17593502716472
C            0.42371212547090       -1.07972452749259       -0.12801683045001
C            0.94461330108260        0.20346846162461       -0.17653401171364
C            0.16124037350857        1.37051359664694       -0.16753519252258
O            0.52577406374260        2.54373139267088       -0.23019592686658
N           -1.23191992054890        1.04498193604692       -0.07006894093061
C           -2.15605641158130        2.16108237137944       -0.04175667834267
C           -1.78269922100911       -0.19520935216059        0.00699347665339
O           -2.98158213545892       -0.37700260604638        0.09359768018114
N           -0.91551313155559       -1.30255365273247       -0.02755341248519
C           -1.45633550260867       -2.63682995639228        0.05997603704608
H            2.85292764437693        1.40556418560945        1.48434217342308
H            4.16886474280264        0.95700764843218       -0.01915587570674
H            2.81478994162266        2.09163593759342       -0.25912108833125
H            3.60111167109112       -1.70156137001082       -0.32095449583452
H           -1.55895012810636        3.07112854841926       -0.05451986485511
H           -2.80925806985124        2.12492018005657       -0.91301061101279
H           -2.76642732352054        2.11549870006140        0.85915404799247
H           -1.06885717567387       -3.15514679122273        0.94052137105225
H           -1.21605641412226       -3.20754034786727       -0.83983824728477
H           -2.53755300184491       -2.53708718825107        0.14658859191871
H            1.37734047941719       -2.96282514728240       -0.15066528745137
25
 energy: 0.543245714264 xtb: 6.6.1 (8d0f1dd)
C            3.10834100849671        1.17655181390407        0.27212614317664
N            2.33869923820646        0.10166763334144       -0.25080801795317
C            2.63035968648441       -1.25608449729416       -0.21492222811190
N            1.44235867565143       -1.95445426083016       -0.17577109734568
C            0.42140349542691       -1.07826550687449       -0.13311134981505
C            0.94684011685182        0.20238692291324       -0.18385838561515
C            0.15960886184462        1.37223235733826       -0.17310135521605
O            0.52399975594569        2.54014648671316       -0.24370763894124
N           -1.22841937820628        1.04485334344190       -0.07003895699661
C           -2.15567683013319        2.16014435404444       -0.04077272978231
C           -1.78280210014737       -0.19642631938640        0.00817235918628
O           -2.97848148736146       -0.37473484286558        0.10374209152330
N           -0.91383251615939       -1.30248459049450       -0.02839290806422
C           -1.45550266519565       -2.63709347004320        0.06156474773184
H            2.83441426541129        1.39495404819206        1.44684126200921
H            4.16184651136389        0.95133747913045        0.04216476437271
H            2.83883647262933        2.08721237953632       -0.25654020539807
H            3.59464654427618       -1.69409431991997       -0.33713335470135
H           -1.56223273254577        3.07244407529117       -0.05422646721578
H           -2.80968110577203        2.12391583404114       -0.91128678725002
H           -2.76537197553260        2.11324019165160        0.86018790934707
H           -1.06566427038782       -3.15421984730563        0.94073257432727
H           -1.21855167183425       -3.20782265058316       -0.83817716644519
H           -2.53593735030082       -2.53694722402722        0.15100086408513
H            1.38301411892415       -2.95943078774263       -0.14765017076046
25
 energy: -0.449856532661 xtb: 6.6.1 (8d0f1dd)
C            3.11195906647307        1.17628718810038        0.27216302630165
N            2.34072215096180        0.10383459389119       -0.26333576306158
C            2.62990544254265       -1.25237140057090       -0.20370508185562
N            1.44310101946499       -1.95310901437694       -0.16946482267726
C            0.42118768250836       -1.07638067299102       -0.13395666873961
C            0.94718033293732        0.20380023978627       -0.18859938319561
C            0.15835775966846        1.37228556725084       -0.17242577869887
O            0.52353461882911        2.54094960945228       -0.24260878214856
N           -1.22802664643111        1.04437102236524       -0.06568408626905
C           -2.15755844273342        2.15898818231289       -0.03699630968358
C           -1.78351676588898       -0.19663028549630        0.00921313136502
O           -2.97878482314758       -0.37384542107939        0.10657006613007
N           -0.91404986465516       -1.30200006439848       -0.02771800364669
C           -1.45547500070244       -2.63695953996429        0.05805964863958
H            2.81601667474661        1.39729235082938        1.42580628486434
H            4.17280579161408        0.93994178070624        0.07110940491553
H            2.85503997413576        2.08591272286759       -0.27735020769806
H            3.59187651241379       -1.69178848982997       -0.33866765136321
H           -1.56653020214081        3.07315092770086       -0.04964728453765
H           -2.81073660127888        2.12187509924529       -0.90824278543093
H           -2.76821993549391        2.11030403425303        0.86327366396018
H           -1.06700984991068       -3.15613059695264        0.93659361855760
H           -1.21718489491814       -3.20600974422176       -0.84251894664285
H           -2.53600380155293       -2.53710003724243        0.14608772615907
H            1.38362447049438       -2.95763944946526       -0.14092111909665
25
 energy: -1.198125143035 xtb: 6.6.1 (8d0f1dd)
C            3.11871596458276        1.17793353179145        0.27036975319158
N            2.34237154932825        0.10372877171149       -0.26693862968381
C            2.63152974535354       -1.25293159881503       -0.18959611575345
N            1.44303807087720       -1.95378358899156       -0.16139008594487
C            0.42239293741616       -1.07511084600165       -0.13225890766523
C            0.94783236004016        0.20488832059970       -0.18948427346239
C            0.15851717111952        1.37111840984238       -0.17025878335811
O            0.52552812052187        2.54174459048749       -0.23646103028393
N           -1.22738779748802        1.04401908953376       -0.06178533958782
C           -2.15815357214543        2.15846607928997       -0.03581962043255
C           -1.78352355233326       -0.19631165526875        0.00957762002426
O           -2.97941291812485       -0.37319751275822        0.10446239986350
N           -0.91428829251830       -1.30146497278973       -0.02585089344173
C           -1.45587291205298       -2.63659455948513        0.05457142392957
H            2.81003202529852        1.40066730017529        1.40733793339595
H            4.16867655366263        0.94161121524957        0.06974097937183
H            2.85953307123557        2.08200086406268       -0.27822863997438
H            3.59112253936546       -1.69349766786785       -0.33939550946892
H           -1.56795144498469        3.07357425994051       -0.04765123236425
H           -2.80976394295444        2.11975398899268       -0.90841024842082
H           -2.77065819637392        2.10918508879285        0.86340584192291
H           -1.07040236806335       -3.15805352243557        0.93356023428512
H           -1.21465523303009       -3.20423918783091       -0.84672452028761
H           -2.53693374380014       -2.53684968486808        0.13967511984013
H            1.38192853300414       -2.95762811118522       -0.13541357954778
25
 energy: -0.922429641092 xtb: 6.6.1 (8d0f1dd)
C            3.12111579972906        1.18005152060283        0.26711498763772
N            2.34160027802850        0.10288899546497       -0.26426939794837
C            2.63289468312072       -1.25502300845163       -0.18139729416420
N            1.44247474485123       -1.95473908087319       -0.15865435646820
C            0.42325548765155       -1.07510230063193       -0.13125100891761
C            0.94753241074032        0.20519626150626       -0.18933728466687
C            0.15840441720050        1.37077168316557       -0.16875510554604
O            0.52627553261392        2.54250133223003       -0.22979641573122
N           -1.22778958283628        1.04428922091539       -0.06058764459326
C           -2.15836973199416        2.15871147375529       -0.03523172717579
C           -1.78340369628464       -0.19612887314681        0.00938044162114
O           -2.98019643865278       -0.37379539648226        0.10091994015101
N           -0.91431761031997       -1.30138726519444       -0.02496761418962
C           -1.45592524479481       -2.63657908917500        0.05357318565202
H            2.80448775244874        1.40505432678133        1.40558079835044
H            4.17420566445588        0.94018580461243        0.06432927521266
H            2.85905531243788        2.08286989956625       -0.28411409389792
H            3.59130326367120       -1.69525762453112       -0.34133475999455
H           -1.56763765960133        3.07346249307251       -0.04648007325257
H           -2.80951651770307        2.11962909869441       -0.90823227950832
H           -2.77132364828936        2.10934242972522        0.86379224533939
H           -1.07196085784214       -3.15881189687475        0.93316660711088
H           -1.21302424042032       -3.20363644483678       -0.84790796720496
H           -2.53736020426421       -2.53703686826738        0.13708609219212
H            1.38043475398986       -2.95842808945512       -0.13559265386063
25
 energy: -0.919330855860 xtb: 6.6.1 (8d0f1dd)
C            3.12111457420273        1.18178819779418        0.26780275459638
N            2.34051792974196        0.10148335997115       -0.25840402532544
C            2.63396579628509       -1.25679416544183       -0.17426492941515
N            1.44215316772173       -1.95549572981059       -0.15828534979912
C            0.42367974283635       -1.07561268598962       -0.13130237788993
C            0.94738158716590        0.20475285540951       -0.18824418274139
C            0.15831220697403        1.37063778461359       -0.16778946842293
O            0.52692767334240        2.54254762176785       -0.22625953388382
N           -1.22787594003869        1.04454888627181       -0.06090165892764
C           -2.15799286535610        2.15905381791049       -0.03573177482542
C           -1.78315216581141       -0.19615343599318        0.00875513001825
O           -2.98053220119132       -0.37432809067789        0.09788145032534
N           -0.91408906235764       -1.30153155466601       -0.02483148085430
C           -1.45588322527042       -2.63668681231170        0.05384289586688
H            2.80543312399834        1.40733476111493        1.40539188309811
H            4.17369029062381        0.94107170806226        0.05892175404012
H            2.85722224913415        2.08426753075741       -0.28568597872993
H            3.59080860543046       -1.69622778013423       -0.34723537510447
H           -1.56658461111867        3.07323751374379       -0.04677321850552
H           -2.80912372629414        2.12004571404223       -0.90872398639705
H           -2.77095662310057        2.11003907386959        0.86331970457908
H           -1.07235787366163       -3.15867496417034        0.93395258574077
H           -1.21245408813968       -3.20384109519738       -0.84746016037641
H           -2.53747688443738       -2.53713906082788        0.13683161818144
H            1.37948698725699       -2.95929484793605       -0.13777237910065
25
 energy: -0.973124678153 xtb: 6.6.1 (8d0f1dd)
C            3.12051049564409        1.18308846671373        0.26969108152545
N            2.33985925591157        0.09983988474026       -0.25300645171877
C            2.63526356109447       -1.25829400803896       -0.16543371399146
N            1.44199136196301       -1.95602338926240       -0.15885581669597
C            0.42384456358084       -1.07630175202385       -0.13278360945070
C            0.94766183954659        0.20398891027274       -0.18773096437478
C            0.15838094851526        1.37049673657901       -0.16740257912097
O            0.52761510223859        2.54209321942805       -0.22565425375947
N           -1.22764750392958        1.04472923159692       -0.06182124326225
C           -2.15736976423031        2.15933579374268       -0.03637826765931
C           -1.78274346777719       -0.19620662824259        0.00802452191145
O           -2.98043433778078       -0.37452430797343        0.09607178257217
N           -0.91371160441167       -1.30168452045296       -0.02531417740140
C           -1.45585231441906       -2.63671645358983        0.05463966211749
H            2.80536707824209        1.40895488152508        1.40578522136660
H            4.17392862275013        0.94403164831125        0.05607786015222
H            2.85436246515283        2.08354387136826       -0.28468244572150
H            3.58920399080907       -1.69640394170606       -0.35776679491870
H           -1.56560442750955        3.07315057149410       -0.04757574800522
H           -2.80885611627256        2.12056563850361       -0.90905331547168
H           -2.77007139474389        2.11078335143430        0.86285059538466
H           -1.07204424428421       -3.15798928903177        0.93503142996513
H           -1.21283065401554       -3.20442647211159       -0.84632087229106
H           -2.53742437577205       -2.53697452954874        0.13787749865254
H            1.37881558763414       -2.96002831155567       -0.13923550365721
25
 energy: -1.058899640524 xtb: 6.6.1 (8d0f1dd)
C            3.11971676550021        1.18344938678445        0.27225892277962
N            2.33992411251114        0.09877870722694       -0.24877410000528
C            2.63642115100204       -1.25898340127784       -0.15528515909207
N            1.44196052245166       -1.95611951151458       -0.15961626588398
C            0.42374262032779       -1.07672228348910       -0.13488251272854
C            0.94825811044291        0.20346175209661       -0.18739811352975
C            0.15856741377844        1.37039036292593       -0.16777815639052
O            0.52786650761208        2.54148404420744       -0.22754163512675
N           -1.22722673368414        1.04471601119791       -0.06281630608652
C           -2.15685538093791        2.15934747759905       -0.03658619005915
C           -1.78234794395711       -0.19626360926893        0.00750823359141
O           -2.97993447919451       -0.37434937995981        0.09629514225480
N           -0.91330712687541       -1.30170849353594       -0.02649333958845
C           -1.45570388658275       -2.63662206872078        0.05481916996302
H            2.80499745384198        1.41011983048739        1.40695491439867
H            4.17274203853000        0.94547957603013        0.05573307151167
H            2.85324946234431        2.08232100630697       -0.28526917116427
H            3.58666760842493       -1.69564892902760       -0.36925315978025
H           -1.56520423882730        3.07318926970162       -0.04812049147894
H           -2.80884742026535        2.12082632275730       -0.90884491036085
H           -2.76913550902293        2.11089395569263        0.86290166191188
H           -1.07118331639790       -3.15726208702620        0.93509706406474
H           -1.21362223576317       -3.20491222853517       -0.84585823407810
H           -2.53711232901174       -2.53661925000016        0.13884909384044
H            1.37858150168903       -2.96021785848621       -0.13886563281561
25
 energy: -1.164076901818 xtb: 6.6.1 (8d0f1dd)
C            3.11906829049845        1.18328765497946        0.27342827959627
N            2.34050212459047        0.09844532234090       -0.24758452744412
C            2.63723115477406       -1.25907062467467       -0.14633711655307
N            1.44190480526473       -1.95606101218651       -0.16037011700662
C            0.42347032826376       -1.07682089007189       -0.13687786771715
C            0.94885573304785        0.20322410305987       -0.18777656882154
C            0.15875560238832        1.37029674875668       -0.16880995275747
O            0.52765774870606        2.54099804008163       -0.23052181089723
N           -1.22683299038021        1.04456836728915       -0.06360353474789
C           -2.15662698704200        2.15917864753019       -0.03652918406410
C           -1.78219764150287       -0.19630787071276        0.00736844186194
O           -2.97943216207779       -0.37398515707925        0.09821357537733
N           -0.91309263433087       -1.30165133918036       -0.02790389660099
C           -1.45561977753968       -2.63651100516370        0.05448782567722
H            2.80532231317983        1.41014622264257        1.40788559207347
H            4.17260653399677        0.94640782504510        0.05696170086656
H            2.85288093143708        2.08115049708087       -0.28434661439732
H            3.58377199713132       -1.69445236547828       -0.37850786050432
H           -1.56537800440202        3.07332448221418       -0.04837168490052
H           -2.80900694871331        2.12074729875257       -0.90849301536812
H           -2.76853922302456        2.11046403489406        0.86317307499771
H           -1.07038111732818       -3.15675193193381        0.93452476752575
H           -1.21442729460181       -3.20522002185994       -0.84603730272096
H           -2.53685321072840       -2.53630133673749        0.13942371139973
H            1.37857509632929       -2.96007708741650       -0.13636201872727
25
 energy: -1.210975372943 xtb: 6.6.1 (8d0f1dd)
C            3.11893751158418        1.18283402685027        0.27315643143259
N            2.34111980641982        0.09877450855778       -0.24885745434217
C            2.63752756598004       -1.25880771568717       -0.14153954250465
N            1.44180460921299       -1.95597711753945       -0.16060680016049
C            0.42332827491215       -1.07656977007757       -0.13750923340265
C            0.94913509543514        0.20332412485969       -0.18831240239857
C            0.15882121234264        1.37026926348463       -0.16951781990365
O            0.52720758526265        2.54089640922202       -0.23185533388838
N           -1.22664898611028        1.04444853116232       -0.06373595313413
C           -2.15673758699882        2.15899018965485       -0.03634949098529
C           -1.78225489826413       -0.19631078949034        0.00756145426125
O           -2.97915295575813       -0.37374623792997        0.10000711498752
N           -0.91305415724513       -1.30152792738317       -0.02877017548625
C           -1.45553912281370       -2.63643319987147        0.05383999571040
H            2.80622017384510        1.40973669238084        1.40867496066350
H            4.17225155050247        0.94574912449465        0.05826133506023
H            2.85363569820189        2.08113863795874       -0.28438128110774
H            3.58196057079057       -1.69367054442643       -0.38261124378040
H           -1.56588680173698        3.07344941180354       -0.04813198601502
H           -2.80908836571348        2.12049624069466       -0.90835227549376
H           -2.76863615875097        2.10983790056528        0.86332408739541
H           -1.07017713013034       -3.15668997035716        0.93377441369142
H           -1.21449533767361       -3.20518742206665       -0.84665816401644
H           -2.53670418153981       -2.53620782613899        0.13905830578377
H            1.37864069618202       -2.95978793854883       -0.13343504621930
25
 energy: -1.234838261572 xtb: 6.6.1 (8d0f1dd)
C            3.11909637562888        1.18252986560780        0.27154091348181
N            2.34142615025283        0.09934444663889       -0.25151465975339
C            2.63755412659785       -1.25849833860233       -0.13946063961750
N            1.44164597114244       -1.95600537491729       -0.16047411069344
C            0.42340065494406       -1.07615174251835       -0.13691688588246
C            0.94906731875904        0.20352095733336       -0.18900668442000
C            0.15870055556930        1.37030221368279       -0.16980790170367
O            0.52681399172897        2.54107449697894       -0.23111336433414
N           -1.22663435224849        1.04444993380646       -0.06348911985903
C           -2.15702509980267        2.15890721971693       -0.03629831403569
C           -1.78243293147616       -0.19630882124237        0.00778094510131
O           -2.97918768152766       -0.37374437921630        0.10081936274009
N           -0.91310800018519       -1.30140687288674       -0.02904932022141
C           -1.45548777682237       -2.63642612743136        0.05331739180076
H            2.80771123982945        1.40889530979814        1.40881878244140
H            4.17244174878600        0.94470493733900        0.05911991847948
H            2.85417192972396        2.08203346693912       -0.28391838376354
H            3.58120845895171       -1.69352828840785       -0.38384380450381
H           -1.56637980590942        3.07353079290054       -0.04770358438297
H           -2.80902000943088        2.12024351504508       -0.90859479032005
H           -2.76920353138327        2.10935702558165        0.86317757605102
H           -1.07057041714430       -3.15683375856743        0.93346839730968
H           -1.21388294481221       -3.20504628546028       -0.84716887213307
H           -2.53673061102405       -2.53634076694277        0.13815790096279
H            1.37863930778847       -2.95957482300355       -0.13080685659690
