25
 energy: 56.128621173833 xtb: 6.6.1 (8d0f1dd)
C            3.61546892673747        0.86940405063564        0.13103612477049
N            2.60091736674638       -0.15100989866512        0.04210776616299
C            2.84933851738745       -1.45894522766419       -0.03937028568866
N            1.66671616775398       -2.12672626425413       -0.05919527657813
C            0.65199409167699       -1.19321626511539       -0.00141448573934
C            1.25565869920783        0.06073508921928        0.04881175047226
C            0.42479737623336        1.29805297911123        0.09075909922746
O            0.94939929061587        2.39867493459716        0.13577786649222
N           -0.89360767742459        1.06980173300443        0.07268723426429
C           -3.77656106642873        2.90114817712120       -0.17498011303780
C           -1.55303195123464       -0.03969690950855        0.03848328643879
O           -2.71888707587545       -0.30375207949661        0.04430128150118
N           -0.65156519251262       -1.35824574988910       -0.00525831327989
C           -1.28309264221434       -2.64361610803893       -0.03419667533608
H            4.00776327746084        0.89355793122022        1.14821466323189
H            4.41538164897734        0.59516827922175       -0.55413182933338
H            3.24097681381507        1.85377577599576       -0.12235521464777
H            3.80936429592976       -1.92462492404596       -0.06528934821876
H           -3.14172909451756        3.75003458909902       -0.15680855543145
H           -4.12807723512024        2.53763081021486       -1.11280745688530
H           -4.25106185218761        2.59462368345316        0.72753433922299
H           -0.98115286063123       -3.23562249324344        0.83548287295085
H           -1.03223805611509       -3.18022251374879       -0.95487868292219
H           -2.36077744062148       -2.46578710078972        0.00135731561295
H            1.55701114983916       -3.12774315876558       -0.10424364141556
