25
 energy: 56.595702060237 xtb: 6.6.1 (8d0f1dd)
C            3.59952900775689        0.88948561696822        0.13146410070014
N            2.58565694496337       -0.13181418208462        0.03401871659360
C            2.83307950906251       -1.44027101092455       -0.04701874577122
N            1.65220487172861       -2.11299256237724       -0.06122734960249
C            0.63791388083475       -1.17642049637409       -0.00203598652999
C            1.23964190243368        0.07681218501202        0.04330266735538
C            0.41342863007632        1.31365810858178        0.08776137033668
O            0.94039115104605        2.41161662111045        0.14191027337922
N           -0.91490008037759        1.09171479218802        0.06582726608598
C           -3.70347967413280        2.83217694476529       -0.17022912684007
C           -1.56501565493126       -0.02520700910509        0.03798197159165
O           -2.72971609038128       -0.30586530612257        0.04944771269506
N           -0.66390786810924       -1.33877335523985       -0.00651642744917
C           -1.28745092493502       -2.62954256169833       -0.03393592198599
H            3.99101621611398        0.91180256134886        1.14906333048268
H            4.39917054213068        0.62389324120679       -0.55719622565420
H            3.24017605985008        1.88166727342447       -0.11275519714618
H            3.79078823642498       -1.90866172257215       -0.06871231165653
H           -3.07507829746406        3.68052073467452       -0.15645147071518
H           -4.06540312286641        2.48184688288408       -1.10676748348719
H           -4.18255328408344        2.53527090850283        0.73100664543558
H           -0.97633590277153       -3.21596561080957        0.83543942128046
H           -1.03023782439833       -3.16360552884724       -0.95426669566012
H           -2.36770780299634       -2.47343006864549        0.00429717493217
H            1.56783551873069       -3.12013827329223       -0.10069792990897
