25
 energy: 55.821497649998 xtb: 6.6.1 (8d0f1dd)
C            3.46124380503578        1.03399440030391        0.11387178177763
N            2.46884333591380        0.00559184251781        0.01223772696465
C            2.72269669760208       -1.32328926613924       -0.00337873905144
N            1.53621488417512       -1.99956310193310       -0.05130175277779
C            0.53117423184330       -1.06851480198096       -0.01992665878295
C            1.09373682683314        0.19435958702436        0.02492572410713
C            0.22720471734762        1.41149462340610        0.05243982509962
O            0.72161985038244        2.52601417256927        0.12798159716688
N           -1.15507699900300        1.16858864600424        0.00915976403952
C           -3.05923675544919        2.45864850018839       -0.14333154785975
C           -1.70439362365496       -0.04252280827033        0.01501015030838
O           -2.87136109218380       -0.35733980035168        0.04442980448772
N           -0.78992616751223       -1.23514982143543       -0.00877009973384
C           -1.34659628984727       -2.57281071938480       -0.02550379566927
H            3.90090019328430        1.06402539362283        1.11266976993834
H            4.25426257766235        0.83341824765801       -0.60942524496226
H            3.01611604187760        2.00174174439232       -0.07697686055922
H            3.66557978233982       -1.80847110085625       -0.10381167798482
H           -2.49081688602875        3.36445191886422       -0.14028020066204
H           -3.54565651042931        2.18326406774294       -1.05226145865011
H           -3.63246779647700        2.22460465585935        0.72220706783869
H           -0.99483921480027       -3.14314791237543        0.83884365458109
H           -1.03781767320581       -3.08735050987873       -0.93852567086066
H           -2.43536106605712       -2.51574309459650        0.00334834497501
H            1.46122406186400       -3.00206116039674       -0.09758776955188
