25
 energy: 55.077201890455 xtb: 6.6.1 (8d0f1dd)
C            3.60329281660418        0.88987249964359        0.11360567598966
N            2.60661311597021       -0.14920818576542        0.03801351024366
C            2.84057898028417       -1.44785377991052       -0.02816846070795
N            1.67232088823810       -2.13237507232420       -0.05292780093071
C            0.64676954844250       -1.20829817811007        0.00418630478996
C            1.25093222481252        0.04429510622484        0.06944962853532
C            0.43315986121181        1.28308246227499        0.08317605302722
O            0.96050966827255        2.38405882681136        0.10757429541517
N           -0.89020192648135        1.04388243950294        0.07436528632574
C           -3.81456642681452        3.05997294144054       -0.17407778691681
C           -1.53117098036105       -0.08308931750402        0.03660644561666
O           -2.70721499083051       -0.31667991308661        0.02025940131393
N           -0.65399114618920       -1.39965936736737        0.00115052612486
C           -1.27947863981603       -2.69388195831687       -0.03473905305260
H            4.01444597490529        0.94168323622109        1.12460134810208
H            4.41450057978349        0.68388118260204       -0.58527389349782
H            3.12650319182268        1.84512165926364       -0.11821501019694
H            3.80511163112568       -1.90291025949651       -0.06343280931671
H           -3.12349055237528        3.87635011914197       -0.15517564560979
H           -4.19910956985779        2.71243317029373       -1.11058047946377
H           -4.29717757076344        2.75152752333013        0.72925267142055
H           -1.00213094663754       -3.30411975739501        0.83107515808790
H           -1.03833543743038       -3.23898435381342       -0.95329064802616
H           -2.35147860802311       -2.50696289867493       -0.00658954439932
H            1.57568096058789       -3.13441841185653       -0.11197155937972
