72
 energy: 41.721868434752 xtb: 6.6.1 (8d0f1dd)
N           -2.04010603435457        3.35168362403499        2.28478684187988
C           -2.02354688813953        2.43160086321648        1.42404806352829
C           -3.12414696549528        2.22439063515231        0.40500240725592
C           -3.61744516085208        0.78785179568972        0.43707493134455
C           -4.45676217271058        0.30804197453248       -0.57557760784815
C           -4.93849962599336       -0.98891593611406       -0.56128490111771
O           -5.76701819336005       -1.52995276863187       -1.50379694770336
C           -6.26052354153875       -0.68931877830016       -2.51320946177325
C           -4.57184743945457       -1.85769944775182        0.49303831029805
O           -5.09104247447346       -3.11826945641862        0.42810382442510
C           -4.79191004480448       -4.00696356727043        1.47432496296691
C           -3.75290979034919       -1.37805271289108        1.49952515664081
C           -3.28944606501570       -0.06754423214192        1.47386205683175
C           -2.49217591928296        2.55180794012448       -0.96697985635702
C           -1.53087138832079        1.50041480966953       -1.53726841116360
C           -0.25725926598295        1.37503822260707       -0.78881861419701
N            0.31131670538313        0.23793642543969       -0.43875238862754
C            1.49120451018353        0.16974564026710        0.14756356524948
C            3.82791018225856       -1.32798519910174       -1.44048621334194
C            5.08431873184034       -1.04044492957557       -0.96759069495696
C            5.66485032323009        0.23070807538694       -1.14589784184068
C            6.92765482983538        0.50065059629595       -0.70569133887764
C            7.64964435853499       -0.49150150259033       -0.06435845327062
O            8.89151263925917       -0.35056938863843        0.46322743625213
C            9.50895242546274        0.90587360805381        0.39116354035942
C            7.09312176196961       -1.78542599520250        0.06438208067220
O            7.89101392172237       -2.69793932190875        0.66659808032664
C            7.38951357570767       -3.99178697584193        0.86403821546619
C            5.84033330842292       -2.05351180020615       -0.37416557026985
C           -0.39537307246970       -1.02179556898607       -0.61508211265797
C           -4.36112133322049        3.14263753223754        0.60403825540349
C           -4.96215946890293        2.90507508943902        1.98273487235706
C           -4.04548589076118        4.62711462711287        0.43010731102466
H           -4.73539106648616        0.95842691832976       -1.39339221458188
H           -6.80412132695642        0.16831520674307       -2.10580890804330
H           -6.94496324942816       -1.29964515221037       -3.10017532285779
H           -5.45772517175298       -0.32402215204217       -3.15808367423117
H           -5.16204078454557       -3.63083072033117        2.43634813865842
H           -5.31328019246595       -4.93122594253197        1.23045353167817
H           -3.71493582098528       -4.20279208624606        1.54565761829482
H           -3.47167732599804       -2.00859422714437        2.32819974696468
H           -2.67926122414074        0.28293787577837        2.29290572961491
H           -3.29868599811297        2.68472148284291       -1.69241316257745
H           -1.95732904765738        3.49616221800233       -0.87661334400136
H           -2.04435976410153        0.54504017502843       -1.56260284733347
H           -1.34008707682140        1.77190712841351       -2.59146251047940
H           -1.17586009646828        1.72590412933686        1.29558169183684
H            0.36252968767412        2.26786181156840       -0.71257551180127
H            1.74656348348436       -0.72160473041241        0.68820748921691
H            1.94504368105020        1.09560322489092        0.44785589738336
H            3.36478668144061       -0.64222764862095       -2.14275806486943
H            3.48842056517587       -2.34596487344885       -1.39273998804315
H            5.13002456381825        1.01089302513467       -1.65748694921667
H            7.34538926858979        1.48011457633622       -0.86512537217844
H            8.93138888282494        1.67920377359520        0.90974526512898
H            9.67277118956897        1.21682049937516       -0.64676822955262
H           10.46732002015937        0.78443762318226        0.89221529974977
H            8.18490765995280       -4.50095265049303        1.39983681390111
H            6.47454065077763       -4.01204269770190        1.47227837545639
H            7.20352794352050       -4.50217704276317       -0.08774084293422
H            5.39759039310601       -3.02775887898828       -0.30555009761846
H           -0.56542991487401       -1.26848126012521       -1.66645963131151
H           -1.35207356251661       -0.89683012394730       -0.11905229653448
H            0.13910612028693       -1.86675750843892       -0.15556512102493
H           -5.11130518737663        2.86095898632644       -0.15099809107648
H           -4.24936810023721        3.20013486457997        2.74354525711375
H           -5.21866349823348        1.85633542624818        2.11722837157995
H           -5.85977411204203        3.50559698362404        2.10231397054478
H           -3.24573278419381        4.90680148433366        1.10633522902966
H           -3.76012519142792        4.85994312991818       -0.59229352419426
H           -4.92631373683285        5.21805169940816        0.67119944762215
H           -1.18425414908849        3.40684636520330        2.83194960200409
