72
 energy: 24.835160774701 xtb: 6.6.1 (8d0f1dd)
N           -1.77003037085749        3.08570922156091        2.27559409750026
C           -1.78276400350716        2.27486726278817        1.31607045693702
C           -2.93336580745299        2.13971148462607        0.34389806059521
C           -3.47258309594044        0.71973926174981        0.38944273198602
C           -4.38678398561016        0.27721216724499       -0.56994405256355
C           -4.90361906435832       -1.00574188900628       -0.54100349836495
O           -5.80470865610157       -1.51000630488412       -1.43690289423837
C           -6.32614345006330       -0.64666030174235       -2.41276556178751
C           -4.49261777123526       -1.90065009021754        0.47161101952629
O           -5.04607841716327       -3.14721862577696        0.41959870310118
C           -4.72491099134273       -4.04882811981874        1.44597094665019
C           -3.59688647236635       -1.45739847766141        1.42724463321241
C           -3.09856851664649       -0.16101852250716        1.38723818379445
C           -2.31933258863218        2.43283525722241       -1.04504412586658
C           -1.36043367797946        1.36416435541569       -1.60700923339232
C           -0.05309529882180        1.28731230391346       -0.88297281955606
N            0.54616031304497        0.07726667581890       -0.55479195537050
C            1.87144195320182       -0.05721514448467       -0.11450199108486
C            3.29746378491588       -0.90049392608746       -1.21911308090786
C            4.70645747266029       -0.73969485882833       -0.84492156504924
C            5.37502935644286        0.45836589150582       -1.08211660249592
C            6.67330736595495        0.65489033769697       -0.66084514108076
C            7.34321494698546       -0.36170776231582       -0.00803526383360
O            8.60450276187557       -0.28246587776270        0.50062400567629
C            9.30147867082912        0.92567354018935        0.35868358046652
C            6.70656995680940       -1.60706817340482        0.16171234719758
O            7.45084950145161       -2.55588521842750        0.79289254012606
C            6.88660736389671       -3.82194462742751        1.00032970934854
C            5.41532657075435       -1.78845761787769       -0.26751312896579
C           -0.21464174390141       -1.15476500096345       -0.63803997251804
C           -4.12823673486221        3.10920971897672        0.59168372604027
C           -4.74522812324438        2.84314278517624        1.96027042424314
C           -3.74092156581197        4.58173231331038        0.48671366712054
H           -4.69982045550809        0.95012704342652       -1.35514804209943
H           -6.82435548249098        0.21927818957355       -1.96606162174734
H           -7.05758921758630       -1.23205635683460       -2.96760666019373
H           -5.54974461617345       -0.29485735053845       -3.09747945641011
H           -5.02782098194904       -3.66518543288671        2.42787123516936
H           -5.28871311693400       -4.95451727184355        1.22991699819498
H           -3.65287266850830       -4.28159961681266        1.45332717397111
H           -3.28065043344094       -2.10732898582964        2.22653622459540
H           -2.42476703319838        0.16328158965143        2.16479631820210
H           -3.13851208088382        2.55330095054269       -1.75537077776949
H           -1.77889216762627        3.37519847278524       -0.98661331289444
H           -1.87909708546799        0.41212695911951       -1.57350189297903
H           -1.21040103175222        1.57183429570272       -2.69147727770577
H           -0.91509799678232        1.62851329900366        1.02594271968911
H            0.60660229482552        2.13847464402225       -0.98746798442042
H            1.95287683951222       -0.76024579171350        0.70707462560978
H            2.21458403334940        0.91836566464972        0.21440935269245
H            3.09122366048813       -0.33850043353817       -2.15289081335985
H            3.07581061219293       -1.96354476715308       -1.32636130149619
H            4.88501200238166        1.26657794912656       -1.60141705376919
H            7.14681048877539        1.60827799094398       -0.83312778656596
H            8.79714309968598        1.75082403789851        0.87095820852875
H            9.45085922123512        1.18952006614791       -0.69416821427137
H           10.26676862745901        0.76099133173094        0.82882423622913
H            7.65339808580591       -4.39042124993554        1.52289355633732
H            5.98548252482552       -3.77870827262961        1.62305351682491
H            6.64939673619773       -4.31854491468425        0.05282859258208
H            4.92575570266937       -2.74022910067874       -0.15450904456582
H           -0.42331920728778       -1.46355143691132       -1.66929195134730
H           -1.16266415445533       -1.01614567046340       -0.12774617439926
H            0.32445936019047       -1.97695465343609       -0.14411850448012
H           -4.88930093036236        2.90725425681384       -0.17594965233809
H           -4.01410520788110        3.05741554605272        2.72835040396719
H           -5.06168176476424        1.80640586054948        2.04625290349482
H           -5.60578039411409        3.48960937014888        2.11980435175227
H           -2.94279803981618        4.78747681615220        1.18835973108097
H           -3.42183297709992        4.83876478536541       -0.51941129192587
H           -4.59415396061031        5.21116011172974        0.73682880387408
H           -0.90793963227094        3.09843401273551        2.80749444439263
