72
 energy: 38.338223205269 xtb: 6.6.1 (8d0f1dd)
N           -2.15819794954163        3.58326224971073        2.14133319579137
C           -2.20843083544410        2.55252099931135        1.42783827099964
C           -3.29536832930762        2.29554278514484        0.41762425535860
C           -3.74604577126374        0.84557724452137        0.46167445137386
C           -4.52044091017285        0.33284054897191       -0.58423129858629
C           -4.96860689663951       -0.97376028357434       -0.57358444806000
O           -5.72540110489003       -1.54550096156135       -1.54801957955295
C           -6.20590855452017       -0.73705623157702       -2.59108469802690
C           -4.63451758321875       -1.82057883943074        0.50932522128916
O           -5.10180554350656       -3.09413515778894        0.42673500759224
C           -4.84681956861447       -3.97489403868077        1.49174613216195
C           -3.88791074928954       -1.30545877791225        1.55048773603444
C           -3.45729383705589        0.01679616852759        1.52984014444212
C           -2.66306637603417        2.63641103282939       -0.95407215949617
C           -1.67965342892473        1.58934392909089       -1.49732756637981
C           -0.43416823747004        1.47199683549853       -0.70363190381262
N            0.11890493959071        0.34087547142036       -0.30214146368310
C            1.24619962014710        0.29595588480586        0.38723778724226
C            4.17639140307594       -1.59707855324455       -1.67865350913986
C            5.39433331301718       -1.26596773147005       -1.14437364257019
C            5.91557030555739        0.04730261305460       -1.24633065202333
C            7.14261094121629        0.37079362699237       -0.74001483967158
C            7.90391481078828       -0.59298213486151       -0.09512968035591
O            9.12711697083703       -0.39711557649799        0.45973344450335
C            9.68123368244027        0.89015561200328        0.43297763269338
C            7.40969391863818       -1.91864057157913        0.00058436648684
O            8.25169187050546       -2.79723052229739        0.59444917287626
C            7.82500995784325       -4.12044872987999        0.76807561607189
C            6.18629574259575       -2.24226942163732       -0.49329453395091
C           -0.54066668093770       -0.92225486445092       -0.58526117193650
C           -4.55517754398180        3.17811329479068        0.62317596568474
C           -5.13372460463406        2.96232985200786        2.01673698768922
C           -4.30546413865478        4.66624942529168        0.39427453414262
H           -4.78066769837067        0.96916123066247       -1.41651645143057
H           -6.79680636694696        0.10557609663199       -2.21939190813698
H           -6.84427567958114       -1.38187618001228       -3.19192097424475
H           -5.39040749244874       -0.35714595092515       -3.21238343734598
H           -5.28024952619732       -3.61000159820070        2.42891293979839
H           -5.32853966040290       -4.91133860455832        1.21772300711101
H           -3.77417338159717       -4.14716107941662        1.62660827311958
H           -3.63870226338166       -1.91946227312041        2.40121336131680
H           -2.90485899463850        0.38799492114623        2.37885247365554
H           -3.46458628577209        2.75948403814418       -1.68843529526010
H           -2.14426973522849        3.59174600100817       -0.85635358721910
H           -2.19177134762241        0.63303371318271       -1.57877056867058
H           -1.40112402288604        1.91092984891320       -2.50600842367450
H           -1.42324734351791        1.78934069421637        1.40853178865201
H            0.13048839521586        2.36910099532070       -0.51735764578064
H            1.58930357934119       -0.63458331863459        0.79261937311492
H            1.72027001984740        1.21949021638285        0.65429734389641
H            3.63342557286536       -0.87067227998620       -2.26591465683814
H            3.81669173093068       -2.61081392380848       -1.62709027889388
H            5.34550488026334        0.80708514357335       -1.75102441582476
H            7.51512608236350        1.37252142924926       -0.86956374011717
H            9.04457568943081        1.62064870130360        0.94355818925163
H            9.85958447590039        1.23029471954854       -0.59240004116434
H           10.62940776972681        0.80364202296395        0.96401880985927
H            8.64364109848960       -4.57832351906222        1.31387942987850
H            6.89958385070639       -4.20533990818670        1.35749445598488
H            7.69129398413370       -4.63373637688923       -0.18956802034768
H            5.80411949607113       -3.24568269409692       -0.43678253135788
H           -0.64003233848549       -1.08671619856439       -1.65954790469593
H           -1.52994980056473       -0.89964622881304       -0.13151915268002
H            0.03139816282588       -1.74939229663089       -0.16308530189558
H           -5.30417558592593        2.83318209114733       -0.10173254361877
H           -4.44151715167453        3.33141459328600        2.76598128226540
H           -5.32499633325688        1.90872427154296        2.20194498892726
H           -6.07231522096798        3.50163087435570        2.10952422079169
H           -3.50473609477447        5.01081091938411        1.04230864726706
H           -4.05114087293958        4.88126175522357       -0.63987039344671
H           -5.21169921170487        5.21598356733382        0.63344506418316
H           -1.35872513433570        3.67801337911266        2.76613393876560
