72
 energy: 39.034387255813 xtb: 6.6.1 (8d0f1dd)
N           -2.15345096880817        3.54629277532737        2.18200623945840
C           -2.17971183493313        2.54627352597055        1.42550909678343
C           -3.26841336186142        2.28783371907166        0.41762414138740
C           -3.72368106358608        0.83861277949997        0.45821592093938
C           -4.50816481533135        0.33021607963500       -0.58352838999569
C           -4.96182758463685       -0.97513754595906       -0.57240951359401
O           -5.73304247111110       -1.54153122769722       -1.53943600012584
C           -6.21488759938180       -0.72892957548313       -2.57844784525895
C           -4.62332683837663       -1.82414485816269        0.50693247002202
O           -5.10195954391960       -3.09593754788028        0.42831721126729
C           -4.83805101350153       -3.97861434171244        1.48972397017416
C           -3.86414770733112       -1.31568448595797        1.54345986111392
C           -3.42822289571577        0.00477765577744        1.52171922036980
C           -2.63328084705887        2.62552358867234       -0.95047072316317
C           -1.65395762562810        1.57429935504875       -1.49166750882621
C           -0.40216731483182        1.45541947879696       -0.71153727753713
N            0.15234210471572        0.32209358182049       -0.32188035668726
C            1.29019615959581        0.27575860880210        0.34679850872909
C            4.11824529891253       -1.55520968177042       -1.63373371964900
C            5.34155203928123       -1.23007947581750       -1.11319915917939
C            5.87272130399139        0.07574785368623       -1.22392678343764
C            7.10740738036950        0.39051512096189       -0.73524780278493
C            7.86246297037816       -0.57771052721392       -0.09236406744512
O            9.08978229919067       -0.39121839937358        0.45412460419413
C            9.65298684496750        0.89177684640765        0.42479129146784
C            7.35774898411378       -1.89965562978758        0.00442138966698
O            8.19462355492940       -2.78466140817834        0.59191834017323
C            7.75231119295735       -4.10059518097458        0.78242145391148
C            6.12828136044279       -2.21201184151910       -0.47434753696600
C           -0.51693389013698       -0.93845000796940       -0.59028889773600
C           -4.52599230866216        3.17228553153514        0.61844565921611
C           -5.10748641869731        2.95253151979980        2.00969195469727
C           -4.26327652630903        4.66100828433220        0.39881684950388
H           -4.77216375300849        0.96780268438495       -1.41397509226860
H           -6.79702299840020        0.11741534034332       -2.20134730898233
H           -6.86208799617045       -1.36701678315135       -3.17855767243004
H           -5.40006446334786       -0.35112687043190       -3.20217750693963
H           -5.26006692687812       -3.61135632628273        2.43282703011866
H           -5.32763888748842       -4.91334661109987        1.22181264263584
H           -3.76378182130688       -4.15507751450202        1.61339121583813
H           -3.60978408468570       -1.93322756205278        2.39082497870982
H           -2.86555672099627        0.37353363549265        2.36591698172188
H           -3.43475511700982        2.74752926351679       -1.68591330006250
H           -2.11155343867818        3.57905151528849       -0.85416728296800
H           -2.16821286242811        0.61895527128934       -1.56843162566876
H           -1.37635377930787        1.89152627825970       -2.50078289465442
H           -1.37669415967169        1.80405150148335        1.38619777851466
H            0.17391481603576        2.34838386005054       -0.54341217109611
H            1.61616834228794       -0.65173775713056        0.77237076964819
H            1.75830442569877        1.20053635920519        0.62005729037020
H            3.59028494964079       -0.83106370791686       -2.23792679004050
H            3.76060938427440       -2.56973290055419       -1.58622426846727
H            5.31092934109749        0.84114121422633       -1.72735546043020
H            7.48613704760072        1.38848235429324       -0.87264479213609
H            9.02559858653882        1.62976605250992        0.93686800540752
H            9.83001426639066        1.22769033503292       -0.60260432468785
H           10.60213477989446        0.79828788052189        0.95256590744793
H            8.56691592042972       -4.56606184382241        1.32817357894596
H            6.82906504661720       -4.17163049559648        1.37684346474962
H            7.60849950853038       -4.61605704914713       -0.17272013048580
H            5.73718023035738       -3.20913736089010       -0.41697050325874
H           -0.62850884512602       -1.11617938426593       -1.66168912728881
H           -1.50091587272514       -0.89344656434512       -0.12815060810251
H            0.04573990199258       -1.77185031166611       -0.16419974545156
H           -5.27430885268059        2.83980826153951       -0.11390603522081
H           -4.40940303758916        3.30952180530600        2.75961523939331
H           -5.31214238105202        1.89844018107762        2.18569976887449
H           -6.03710513627203        3.50713777575696        2.10856874540588
H           -3.46224464367518        4.99102344313740        1.05260999897673
H           -4.00267243552232        4.87716376932799       -0.63395575409759
H           -5.16355466022859        5.22146569858401        0.63809460134996
H           -1.32830256300507        3.63599420404516        2.77216355717606
