72
 energy: 40.978659523880 xtb: 6.6.1 (8d0f1dd)
N           -2.10814003023153        3.43484274541211        2.26413777856070
C           -2.09337653850411        2.48074724745646        1.43973218801885
C           -3.18192905744355        2.25036092635072        0.41520582685222
C           -3.66001265582504        0.80855675097374        0.44771743021184
C           -4.47788797037511        0.31704715120681       -0.57739604978081
C           -4.94829727037152       -0.98382034478828       -0.56680298407118
O           -5.75472065273547       -1.53651274641834       -1.52115682558215
C           -6.24145091910242       -0.70391983990401       -2.54054223851005
C           -4.59370894213370       -1.84435700389591        0.49849347437360
O           -5.10217667945554       -3.10886555643318        0.42922279067968
C           -4.81147167276854       -3.99531826000694        1.48065972297631
C           -3.79779220810199       -1.35361007777791        1.51803753274420
C           -3.34481965133730       -0.03904611771427        1.49503307048107
C           -2.54865930315350        2.58116219644786       -0.95589019846704
C           -1.58131335856181        1.52832311922901       -1.51262044103076
C           -0.31503882546589        1.40515678038836       -0.75568921696987
N            0.24909403776184        0.27031584145725       -0.38791584871725
C            1.41406470343320        0.21373453506974        0.22564851268765
C            3.95002838289268       -1.42182799980156       -1.50588295267779
C            5.19061238814307       -1.11812699224110       -1.01395814392824
C            5.74817988688195        0.16779930150131       -1.16800792847694
C            7.00150402728938        0.45672550083419       -0.71709576143733
C            7.73636155252174       -0.52702083099974       -0.07624026735341
O            8.97156687358152       -0.36782599007693        0.46004779419731
C            9.56689115649461        0.90038663232485        0.40375539859372
C            7.20188253623508       -1.83253455229938        0.03959228584136
O            8.01408560368301       -2.73373258568915        0.63860412970947
C            7.53446133253032       -4.03693578519261        0.82994608876639
C            5.95763657766534       -2.12043207387737       -0.40901945956512
C           -0.44409944447370       -0.98675061196607       -0.60438793979043
C           -4.42851853101929        3.15371436228424        0.60790521275092
C           -5.02267070279180        2.92329297242677        1.99084156907345
C           -4.13298374498104        4.64025873769678        0.41518429967395
H           -4.74946164132461        0.96226248938105       -1.40119244456376
H           -6.79933307177408        0.14984601430602       -2.14448176026904
H           -6.91150306113192       -1.32326343381098       -3.13474316095933
H           -5.43262051412074       -0.33340098846765       -3.17522244701629
H           -5.20097632180097       -3.62232072885806        2.43624204376002
H           -5.32009526893163       -4.92434334114488        1.22746291886459
H           -3.73454587366571       -4.18234062220229        1.57192294363032
H           -3.52702837531012       -1.97859692070225        2.35474250462744
H           -2.75311067733369        0.31910264647218        2.32442010642609
H           -3.35261768974714        2.70936941185478       -1.68666459251521
H           -2.01861570590424        3.52868989113989       -0.86565076672836
H           -2.09499424827269        0.57274496420522       -1.55869842016689
H           -1.37900612114692        1.82557748230729       -2.55985227165959
H           -1.25833852778904        1.75993250998371        1.35443765636018
H            0.29377354120435        2.29361375359916       -0.63536506826318
H            1.69282732866255       -0.69708769694314        0.72034978609895
H            1.87191058812571        1.13909796252687        0.51804106490609
H            3.45486256368222       -0.72274291763396       -2.16845723131302
H            3.59814616018180       -2.43891592712953       -1.46285251210939
H            5.20363249342966        0.94158035118662       -1.67915791153965
H            7.40270684551846        1.44409839134141       -0.86940068321787
H            8.97010734688943        1.66026123697387        0.92141533554789
H            9.73515606346883        1.22164342591894       -0.63044624962867
H           10.52275350025771        0.79110988099428        0.91357529006817
H            8.33730012250579       -4.52990381431943        1.36928679783690
H            6.61572222811110       -4.07720379813889        1.43251021120243
H            7.36470627047397       -4.54902661011455       -0.12395340115836
H            5.53350476364418       -3.10275892869691       -0.34885735015590
H           -0.59126684603863       -1.20711230148902       -1.66309430036633
H           -1.41168266467328       -0.88264329260103       -0.12106039980626
H            0.09722556573364       -1.83109702558534       -0.15915162042597
H           -5.17684011463272        2.85175341991794       -0.14054769240427
H           -4.31533725218671        3.24328364039944        2.74757181424902
H           -5.25928898732027        1.87186585676301        2.14153997311649
H           -5.93244272715509        3.50666850050291        2.10091187575005
H           -3.33304998306322        4.94000671390071        1.08329854824780
H           -3.85675116380622        4.86585273793655       -0.61140068957546
H           -5.02142159734680        5.21975351219666        0.65436118505377
H           -1.25282565962952        3.49985719001559        2.81314690067880
