72
 energy: 0.843499478485 xtb: 6.6.1 (8d0f1dd)
N           -1.65539257260884        2.97650831645302        2.25639722423590
C           -1.68596799763478        2.21746680182500        1.25561403830743
C           -2.85685610620801        2.10739826070318        0.30777444268712
C           -3.41166060854090        0.69313489996175        0.36497488840396
C           -4.35571895852278        0.26531410579049       -0.57056351739057
C           -4.88437053142455       -1.01215122099171       -0.53526623221469
O           -5.81508393165794       -1.50276009829730       -1.40785427119812
C           -6.35219854075716       -0.63143261379520       -2.36804803678640
C           -4.45688011867127       -1.91704521765857        0.46033977325745
O           -5.02480241201643       -3.15809471090313        0.41406190584124
C           -4.69845004819682       -4.06749469864219        1.43148675972044
C           -3.53032045771099       -1.48922535006782        1.39257104768613
C           -3.01813694690192       -0.19845063159457        1.34516230058603
C           -2.26342695328788        2.37859631543734       -1.09753904707672
C           -1.30469802819945        1.29709919500873       -1.64606481537337
C            0.01240943304814        1.23191090952510       -0.92649015244192
N            0.62217625337348        0.00435147870698       -0.60729918967927
C            1.99490978891014       -0.12396866077313       -0.19783764390383
C            3.12732501719902       -0.75738168972301       -1.23146391316828
C            4.56985398988582       -0.61972784778298       -0.83987437089759
C            5.26120665852267        0.56081063864793       -1.07189043606141
C            6.56592889040126        0.72545057682668       -0.63816770435247
C            7.21344389776564       -0.30291507241512        0.02043443486297
O            8.47906904422259       -0.25190005489361        0.51938299440515
C            9.21343100933966        0.93099362403733        0.34532185133875
C            6.54267528372315       -1.52877002849934        0.20809832062098
O            7.26262919943487       -2.48926054977830        0.85238732955325
C            6.67300517714602       -3.74478621141712        1.05969932333211
C            5.24411333924596       -1.67422663728175       -0.23205857351486
C           -0.14631486108609       -1.21828652792150       -0.64455708086544
C           -4.03036844138330        3.09557289830571        0.58565819604300
C           -4.65138621697906        2.81710051106603        1.95162395500780
C           -3.61154064174232        4.56083481961120        0.51024243740719
H           -4.68520835077278        0.94789843073172       -1.33925800578990
H           -6.83152253960612        0.23635534600582       -1.90454621190308
H           -7.10270573699552       -1.20911867934334       -2.90535430960140
H           -5.59114095010955       -0.28342730192847       -3.07262364453271
H           -4.97130489417643       -3.68062217769770        2.42058545648571
H           -5.28064557536414       -4.96440748002552        1.22629936410648
H           -3.63158018340747       -4.32127815297454        1.41527247767872
H           -3.19993042118834       -2.14825327000029        2.17842875165432
H           -2.31787360554240        0.11386582568716        2.10342400596390
H           -3.09213111987497        2.48593443017099       -1.80091409036736
H           -1.72433698642739        3.32380426707072       -1.06264060925730
H           -1.82545679901467        0.34624308825457       -1.59837807675038
H           -1.14256143121284        1.48821728293421       -2.72844957761272
H           -0.81578228928726        1.61715248521780        0.88489410111522
H            0.69600619973569        2.05324365889257       -1.10274070483668
H            2.05258395421585       -0.75347581231135        0.69469270915151
H            2.30248613366274        0.87234614776182        0.11446851707102
H            2.97257851867879       -0.19102451753051       -2.16945117542743
H            2.92513184150322       -1.81963605074813       -1.40400741316077
H            4.78850520719857        1.37941893959490       -1.59279028464658
H            7.06527086409736        1.66621923336974       -0.80905873450108
H            8.74272819656632        1.77910622162783        0.85149370116266
H            9.35556095216979        1.17186184221264       -0.71379511874604
H           10.18077179255455        0.74310737479931        0.80155272701824
H            7.42691890319813       -4.33879927755428        1.57462470134437
H            5.77879559458552       -3.67623803339105        1.68792143145968
H            6.41512650118219       -4.23105742269989        0.11251433555405
H            4.72786437334961       -2.61054138593642       -0.10017631094932
H           -0.35796438329529       -1.54418080653185       -1.67083072984961
H           -1.10035325220495       -1.09325397670950       -0.13130411481923
H            0.40639455599086       -2.02193876587551       -0.13817539066393
H           -4.79673440973339        2.92866620716177       -0.18333163363549
H           -3.91270630049553        2.99948866755942        2.72055050790130
H           -4.99189689385253        1.78680992099515        2.02070490952353
H           -5.49768223276106        3.47861925427723        2.12766013814269
H           -2.81441114024943        4.73639510957434        1.22102955553657
H           -3.27822540017197        4.82750019663413       -0.48869762789661
H           -4.45333350990811        5.20452314212679        0.76469017055154
H           -0.78812741321944        2.96992585886770        2.77816546675500
