72
 energy: -5.493459241712 xtb: 6.6.1 (8d0f1dd)
N           -1.58580403304874        2.89542999030494        2.24849297915461
C           -1.62638491302901        2.18502518496824        1.21344809592431
C           -2.80859065630482        2.08729454376125        0.28196512315646
C           -3.37166203460702        0.67576674820969        0.34847967795596
C           -4.33479800119381        0.25788369513712       -0.57169185086661
C           -4.87099092296880       -1.01582226713488       -0.53199507662044
O           -5.81983490075472       -1.49764408446179       -1.38805468309142
C           -6.37004642131326       -0.62209960095746       -2.33736680916441
C           -4.43327522072996       -1.92722434102913        0.45310803302036
O           -5.01088485556044       -3.16343881357517        0.41077195286803
C           -4.68364478064008       -4.08049550583978        1.42120557621710
C           -3.48650182959608       -1.51002828821378        1.36914454973227
C           -2.96491546159564       -0.22289742764866        1.31659965770808
C           -2.23213587990395        2.34265915407025       -1.13550092613861
C           -1.27779260642041        1.24686544688514       -1.66643473481569
C            0.02575255851850        1.17673718355531       -0.92456837247245
N            0.65739014459920       -0.03933483044114       -0.62600106940902
C            2.03712472009448       -0.12761838697090       -0.21926534526921
C            3.06167863865699       -0.68195752501639       -1.27369062210674
C            4.49232255267033       -0.54558867147202       -0.85173381518403
C            5.19007101453782        0.63140344980567       -1.06510878399879
C            6.49554994261782        0.77458246402892       -0.62121835252412
C            7.12749038628152       -0.26390556217974        0.03802683110433
O            8.39712299581298       -0.23342338613215        0.52848465806319
C            9.15544916685660        0.93171390844601        0.33600502326213
C            6.43488971841831       -1.47650138643477        0.23878385930852
O            7.13856275992686       -2.44503965503629        0.89090910947838
C            6.53039873595206       -3.69194370585459        1.09964195310975
C            5.13555913668363       -1.60025164151313       -0.21021890999579
C           -0.10349938223959       -1.26392084591585       -0.64158421847532
C           -3.96524961675549        3.08721031813771        0.58255628246428
C           -4.58832758889329        2.79974102619946        1.94666843384362
C           -3.52426675515120        4.54677748107971        0.52630459929659
H           -4.67429249158730        0.94657483357781       -1.32963206092172
H           -6.83701487999255        0.24652958773563       -1.86271323110157
H           -7.13274333861994       -1.19650078889440       -2.86103515744699
H           -5.62095175246345       -0.27654797785170       -3.05666919174530
H           -4.93508654453403       -3.69226090392624        2.41510915222057
H           -5.28256864599975       -4.96810229215382        1.22036274183411
H           -3.62140243988999       -4.35059341519152        1.39023093764047
H           -3.14714738061980       -2.17534501277959        2.14585735625659
H           -2.24742069438721        0.08046881125415        2.06204066304465
H           -3.06562376291993        2.44113221620805       -1.83553181575067
H           -1.69309531171915        3.28954341428250       -1.11951845296365
H           -1.80245248765915        0.29777939138857       -1.61977415990292
H           -1.08597258936857        1.43662122780709       -2.73839060469263
H           -0.75553472960846        1.62789800793835        0.78428537224082
H            0.70451580608051        2.00298408048590       -1.07129110841012
H            2.11913008438330       -0.73612289089478        0.68981743501857
H            2.35053114119625        0.87958034503754        0.05644542927387
H            2.89722064788386       -0.08787942573971       -2.18184784535586
H            2.83979945111258       -1.73097317526614       -1.47372628081402
H            4.72380071720498        1.45526112420111       -1.58385812026040
H            7.01129245770137        1.70623521677015       -0.79230280413798
H            8.70668942822887        1.79470866765560        0.83746822228374
H            9.29359112606745        1.15928184877939       -0.72658571546788
H           10.12306267597584        0.72608202544891        0.78485532970149
H            7.27593068808120       -4.30108796741892        1.61003802278862
H            5.64117719253534       -3.60652790452513        1.73222690055876
H            6.25828661488964       -4.17297087871446        0.15377184094393
H            4.59774226116050       -2.52370726489023       -0.06875133635663
H           -0.30815902384159       -1.59356732797539       -1.66778894978085
H           -1.06421667526003       -1.15284020978185       -0.12985489972697
H            0.46551976593855       -2.04967165822936       -0.13171222288218
H           -4.73490585932577        2.94328319702189       -0.18609950382555
H           -3.84585993538868        2.96104499338449        2.71715922399141
H           -4.94464328573814        1.77409900616704        2.00440381029095
H           -5.42561531470434        3.47021480647289        2.13097771358340
H           -2.72780440189047        4.70519251452869        1.24255991808981
H           -3.18185853224948        4.82008899582138       -0.46784854127161
H           -4.35905206474391        5.19828872640802        0.78360805764658
H           -0.71204218769919        2.88242976250310        2.76066359014020
