72
 energy: -6.682838861035 xtb: 6.6.1 (8d0f1dd)
N           -1.52050840596760        2.80876867019087        2.24407598164439
C           -1.57239671117082        2.15812770326675        1.17075209924489
C           -2.76427555867848        2.06801478809885        0.25675039039887
C           -3.33248226024776        0.65769318707959        0.33242206463633
C           -4.31253676696594        0.25031594462899       -0.57478600552816
C           -4.85508463898617       -1.01963312884349       -0.53100165908946
O           -5.82000313930608       -1.49226189827830       -1.37090401807264
C           -6.38681884036330       -0.61410300885579       -2.30864573258293
C           -4.40866978719710       -1.93694446722190        0.44541703157319
O           -4.99701698947821       -3.16628185040260        0.40904767882492
C           -4.67008632360507       -4.09336093577458        1.41109207246708
C           -3.44261334738299       -1.53129576749432        1.34556564886734
C           -2.91190411645893       -0.24762171107827        1.28840702519866
C           -2.20640017708682        2.30883119649863       -1.17137308510943
C           -1.26260476215017        1.19480823240532       -1.67350659146736
C            0.01209156221926        1.13604257721407       -0.90051622711969
N            0.64119289863835       -0.05478389522537       -0.56569045521954
C            2.01819219246601       -0.07037795049057       -0.17700259433204
C            2.97822701797087       -0.58644346215172       -1.28134202470249
C            4.40467771644006       -0.46947336220105       -0.84974033306659
C            5.11510234917700        0.69935973440348       -1.05334603520301
C            6.42321886415921        0.82077937956012       -0.60804082840099
C            7.04046136118863       -0.22646737663244        0.05211314864937
O            8.31554559865540       -0.21827686049565        0.53006140959069
C            9.09763218124176        0.92923485004347        0.32553588969269
C            6.32494939673360       -1.42481357508604        0.26685768530309
O            7.01416635165910       -2.40193456802645        0.92225432881974
C            6.38801339643374       -3.63945515770756        1.13606975637622
C            5.02269115611776       -1.52705540683858       -0.18253505545382
C           -0.06878655343526       -1.29978034398738       -0.62385236894933
C           -3.90038726936259        3.07974661220023        0.58165025015340
C           -4.52542306733552        2.78381715924144        1.94335345134313
C           -3.43691838293192        4.53382392312038        0.54219071792416
H           -4.66202229798457        0.94553467962920       -1.32096058974550
H           -6.84390721431165        0.25455618082964       -1.82354266361646
H           -7.15966943632142       -1.18906834337672       -2.81690515892109
H           -5.65102778842378       -0.27134255615163       -3.04385204604141
H           -4.89986408558189       -3.70618343905667        2.40991168519068
H           -5.28857212994779       -4.96802786375129        1.21330844599430
H           -3.61374605818856       -4.38184166398594        1.36644907333356
H           -3.09497225220790       -2.20340263009771        2.11304075080896
H           -2.17739187218165        0.04487782148236        2.02141136667342
H           -3.03986630439717        2.40106607359649       -1.87068643098290
H           -1.66413161794564        3.25527743529367       -1.17596958065533
H           -1.79414288243508        0.24721001100217       -1.63191487285649
H           -1.02861745937709        1.39242945381038       -2.72996979569409
H           -0.70437532335026        1.64641122866953        0.68604944762689
H            0.66063558993074        1.99410923765086       -0.98046156361792
H            2.13614845782993       -0.68915273365294        0.72128523389074
H            2.30608932815877        0.94775156264708        0.09092141365446
H            2.80651636735332        0.01775551577908       -2.17411017319596
H            2.73656423260010       -1.62559257797628       -1.50983321686936
H            4.65574903658397        1.52778871798339       -1.57081130316614
H            6.95367925554481        1.74258311732570       -0.78642848318763
H            8.66962081910487        1.80521900419029        0.82389510677123
H            9.23100777311054        1.14654240903621       -0.73982033719454
H           10.06505043734668        0.70291906947403        0.76853001213804
H            7.12820213537867       -4.25990777921955        1.64030724085173
H            5.50529835736992       -3.53979118333906        1.77615554295071
H            6.10073957068240       -4.11660531410203        0.19271131266198
H            4.46697241104890       -2.43886102622204       -0.02854721040879
H           -0.25018147882681       -1.62339843780405       -1.65653086346227
H           -1.03537415121058       -1.21740693236707       -0.11702970303920
H            0.52969584258270       -2.06032750880251       -0.12100531206186
H           -4.67348198634415        2.95468803154924       -0.18553123501768
H           -3.78152745363522        2.92227113297257        2.71906406521425
H           -4.89796480735197        1.76330829204713        1.98740635567468
H           -5.35501653576289        3.46260532944109        2.12934225961639
H           -2.64101182955707        4.68702345031035        1.26283688888632
H           -3.08641434086223        4.81554249976977       -0.44721534974463
H           -4.26706539947186        5.18928252064182        0.80092877998419
H           -0.63350380049335        2.80174952891174        2.74086218758766
