72
 energy: 40.468164988627 xtb: 6.6.1 (8d0f1dd)
N           -2.14010307599740        3.47939210021121        2.24767318748239
C           -2.12830663308841        2.50641898241071        1.44475136012963
C           -3.21089556241160        2.26380407914941        0.41959671516172
C           -3.68094141761773        0.81935723238457        0.45235175344477
C           -4.48769461285045        0.32189921588823       -0.57865832756227
C           -4.95164913396359       -0.98083150748099       -0.56942953337523
O           -5.74671648689887       -1.53826121429356       -1.52805517758844
C           -6.23205200905739       -0.71177450576962       -2.55360421836568
C           -4.60327874846092       -1.83715688575478        0.50128336440018
O           -5.10321827821479       -3.10396674888574        0.42939819126722
C           -4.82056432241255       -3.98945802400408        1.48392561982396
C           -3.81968443334362       -1.34073437470378        1.52710375748908
C           -3.37232467004140       -0.02417435599687        1.50489857354416
C           -2.57510548412335        2.59698928225053       -0.94932336232589
C           -1.60512033839805        1.54328576258055       -1.49933827134440
C           -0.34236538223036        1.42226738534306       -0.73866795523272
N            0.21791395830377        0.28708189963785       -0.36398382403822
C            1.37448003855401        0.23524326964755        0.26573839365600
C            4.00831491530999       -1.46725332675759       -1.54211417839043
C            5.24287906956139       -1.15537010114797       -1.04510414998727
C            5.79005261578319        0.13674119971251       -1.18250717249891
C            7.03791204663843        0.43484574456470       -0.72235435276308
C            7.77914684530367       -0.54426491036745       -0.08122918050293
O            9.01093362419408       -0.37593294650824        0.46044204119017
C            9.59552884161474        0.89767752018078        0.41093790329681
C            7.25467001619208       -1.85561806732946        0.02781845141855
O            8.07468561172627       -2.75122439798762        0.62395829091787
C            7.60726041744020       -4.05907361061173        0.81441571472076
C            6.01570475453639       -2.15166344516716       -0.43054858693654
C           -0.46922756981670       -0.97014506221877       -0.59959666609382
C           -4.46208968718326        3.15973588985963        0.61051288842388
C           -5.05226473547248        2.93275909623983        1.99592303597880
C           -4.17676757947060        4.64713201445537        0.40879201458640
H           -4.75708213493703        0.96441156997973       -1.40474640351795
H           -6.79802934075467        0.13957301158491       -2.16368407545850
H           -6.89466270671501       -1.33661760577748       -3.15076666643120
H           -5.42085075636527       -0.33856926216570       -3.18397534078675
H           -5.22052734405881       -3.61803295787782        2.43570921608291
H           -5.32358636801498       -4.92033748946016        1.22595553078951
H           -3.74415663465885       -4.17270180392067        1.58573937133919
H           -3.55445050224849       -1.96317086853630        2.36755691391046
H           -2.79010516947508        0.33783264690130        2.33919135269523
H           -3.37873421714411        2.72360914443620       -1.68068502500277
H           -2.04863385006992        3.54659253551872       -0.86396815253992
H           -2.11971198664555        0.58803170299900       -1.55721015194698
H           -1.37869167883634        1.84502050969300       -2.53829460912045
H           -1.30161985375052        1.77704521706878        1.38033881881266
H            0.25696580968382        2.31079152856073       -0.59951706745095
H            1.66664522307044       -0.68396739333518        0.73320835627361
H            1.83494910759413        1.16020182896579        0.55281749795951
H            3.49940795637473       -0.76217442700574       -2.18424513208287
H            3.65380817602282       -2.48369459408638       -1.50082053091440
H            5.24045029306436        0.90781614806771       -1.69199189932764
H            7.43095266705979        1.42602998730576       -0.87102992593499
H            8.98938073025858        1.65117592811717        0.92736149268988
H            9.76607651870910        1.22337411160680       -0.62158457871655
H           10.54997182992613        0.79464753727504        0.92533048285153
H            8.41364350204794       -4.54401038834902        1.35597862390759
H            6.68673139207271       -4.10942187846951        1.41394889679544
H            7.44582162713955       -4.57203069806357       -0.14038492570286
H            5.60225210818107       -3.13769710211374       -0.37143633371368
H           -0.60741380974807       -1.17723874271349       -1.66223579116695
H           -1.44159095231795       -0.88025414462167       -0.12134559097787
H            0.07858419776349       -1.81237442559227       -0.16288868010032
H           -5.20980674230438        2.84831054357282       -0.13412451863034
H           -4.34765270033611        3.26538010625741        2.75021532203488
H           -5.27840199065676        1.88018492218751        2.15509509631449
H           -5.96830526594026        3.50701902318562        2.10178609768377
H           -3.37664900148954        4.95652198522759        1.07255746961515
H           -3.90524059165881        4.86926997942473       -0.61981002072627
H           -5.06898157332969        5.22067907397307        0.64753257342167
H           -1.28443505002357        3.54733315958319        2.79693106919219
