72
 energy: 39.717831792252 xtb: 6.6.1 (8d0f1dd)
N           -2.15152688204219        3.50575452843817        2.21763828049569
C           -2.15621182896159        2.52036903078038        1.43888444266509
C           -3.23982275104256        2.27511326622041        0.42000370101415
C           -3.70264004973360        0.82899687874833        0.45512655292280
C           -4.49721467744414        0.32591132882722       -0.58224157669157
C           -4.95645112281213       -0.97804368677606       -0.57162729413352
O           -5.73982047347949       -1.53998159549984       -1.53428752884576
C           -6.22376965118301       -0.72039691509208       -2.56665064210553
C           -4.61312586850894       -1.83014098245473        0.50389232941665
O           -5.10331506161343       -3.09954199537599        0.42915892003374
C           -4.82938244661837       -3.98366684732582        1.48704398669530
C           -3.84183805037514       -1.32805031836381        1.53572348085679
C           -3.40054606312254       -0.00948702302679        1.51386038234257
C           -2.60311591727765        2.61235412047821       -0.94731793896107
C           -1.62891111320245        1.55901780900136       -1.49263716030947
C           -0.37092909268457        1.43968504588443       -0.72400171259527
N            0.18534277350091        0.30431204192367       -0.34277154567726
C            1.33292470806189        0.25551063227279        0.30596585778009
C            4.06177076686578       -1.51035938510548       -1.58922649726281
C            5.29081311927342       -1.19283350642004       -1.08081242952237
C            5.83109576757062        0.10563711348315       -1.20086819717358
C            7.07280490424140        0.41260262169233       -0.72805576604180
C            7.82081358986122       -0.56127582515966       -0.08661179330084
O            9.05062300537990       -0.38456793734506        0.45641997246855
C            9.62446035328618        0.89383892904849        0.41732038158002
C            7.30535686146925       -1.87799395598153        0.01604545696991
O            8.13446913393098       -2.76864896971190        0.60531089793114
C            7.67969816762146       -4.08036954031656        0.79818736353838
C            6.07146215690925       -2.18113130136765       -0.45360687283016
C           -0.49400197426346       -0.95471002581028       -0.59591169464353
C           -4.49452111178052        3.16574281071906        0.61400038284364
C           -5.08026248865308        2.94242196409161        2.00230022035834
C           -4.22026225445442        4.65414795148288        0.40369054000242
H           -4.76375434353531        0.96601309068616       -1.41060837181793
H           -6.79771322407316        0.12854833092834       -2.18284472750105
H           -6.87896994915533       -1.35107476802808       -3.16644271769622
H           -5.41029581122750       -0.34461122752952       -3.19310142802445
H           -5.24004832210100       -3.61399434801105        2.43474903016785
H           -5.32655995628241       -4.91650918547790        1.22487175644367
H           -3.75358795287617       -4.16274650899026        1.59956176048399
H           -3.58175989016593       -1.94807099857693        2.37962355858174
H           -2.82781674931017        0.35654233278416        2.35292718439432
H           -3.40594023161707        2.73563512284179       -1.68149198421242
H           -2.07948107735530        3.56355696916356       -0.85879167178461
H           -2.14428321642924        0.60431024702284       -1.55980434299268
H           -1.37218258427366        1.86517812781261       -2.51731000069404
H           -1.34347274747194        1.78221739480592        1.40055360962573
H            0.21624649744837        2.33071563855105       -0.57195261362022
H            1.64165006517063       -0.66846373414895        0.75206426891041
H            1.79689964162289        1.18057905559894        0.58611547064185
H            3.54399403477026       -0.79579024364011       -2.21703069395632
H            3.70605933723010       -2.52636492104613       -1.54405571790067
H            5.27618308457849        0.87488097108367       -1.70605782892137
H            7.45841587139220        1.40721700686922       -0.87227684663442
H            9.00799953597041        1.64026861280241        0.93183516801506
H            9.79822918470951        1.22534953798131       -0.61255821746583
H           10.57616787204241        0.79429569710982        0.93853983251018
H            8.49009976372673       -4.55566150304015        1.34241815258787
H            6.75797230533485       -4.14034952447098        1.39561780481290
H            7.52669460605826       -4.59513879912499       -0.15654950092451
H            5.66990647497022       -3.17259669854962       -0.39557525266765
H           -0.61952773856161       -1.14689407409968       -1.66321645685555
H           -1.47195034551195       -0.88642050128514       -0.12526440725793
H            0.05879324649151       -1.79423842969512       -0.16470265110060
H           -5.24264893275678        2.84552377444921       -0.12586441779345
H           -4.37818805109203        3.28772690295650        2.75377573438350
H           -5.29603775482643        1.88890765404150        2.17004860732394
H           -6.00279285239092        3.50729982403240        2.10510156877187
H           -3.41976348222090        4.97285945231016        1.06268880206746
H           -3.95401388686046        4.87320625595102       -0.62695604330608
H           -5.11628762159910        5.22175026201675        0.64257662774309
H           -1.30540648074613        3.59128492717516        2.77823141923735
