72
 energy: -6.571324227694 xtb: 6.6.1 (8d0f1dd)
N           -1.55285150371649        2.85325318115581        2.24590717253637
C           -1.59865867072625        2.17124777483018        1.19203717843691
C           -2.78583889517165        2.07761476848446        0.26899450099092
C           -3.35191522691775        0.66688459729375        0.34032826748682
C           -4.32372555276960        0.25404377291399       -0.57306932217251
C           -4.86337930580993       -1.01777321503403       -0.53110918540455
O           -5.82045126646822       -1.49524979428778       -1.37907372812994
C           -6.37842942276444       -0.61808664758511       -2.32262289465387
C           -4.42094289545179       -1.93218236288177        0.44929575103510
O           -5.00371305530830       -3.16522793063155        0.40970834187425
C           -4.67656589867097       -4.08703298808255        1.41598302858697
C           -3.46441290785646       -1.52055116144087        1.35727969049829
C           -2.93833069107314       -0.23512521545345        1.30242927251697
C           -2.21862661737607        2.32588500217708       -1.15425012864561
C           -1.26782247177917        1.22163832050844       -1.67223102391647
C            0.02073058759534        1.15350794529027       -0.91091756185685
N            0.65603394245409       -0.05263079148884       -0.60126880345219
C            2.03791414868709       -0.10186507698428       -0.20558964133413
C            3.02354182029448       -0.63576508799738       -1.28290686468245
C            4.45091144400603       -0.50783281384730       -0.85431978218797
C            5.15364047317489        0.66597978155620       -1.06058036469139
C            6.45995464124988        0.79828462925471       -0.61429700821182
C            7.08429289161775       -0.24484952948780        0.04536633755544
O            8.35630217939221       -0.22516723314846        0.53052501508310
C            9.12656849911226        0.93110283054219        0.33119183636036
C            6.38040304363802       -1.45038574281617        0.25302397863699
O            7.07633320506633       -2.42298312532616        0.90819018863007
C            6.45890199972694       -3.66526228920237        1.11855251258259
C            5.08015402504460       -1.56337819375727       -0.19816966955034
C           -0.08569214543673       -1.28435471053241       -0.63357185703655
C           -3.93301533441030        3.08320478005448        0.58158187208952
C           -4.55676169561778        2.79135970918233        1.94474400537975
C           -3.48057046358005        4.53977017123813        0.53422062888513
H           -4.66799215326752        0.94572082832460       -1.32562524371505
H           -6.83971910214582        0.25068335731442       -1.84240171664127
H           -7.14677940628620       -1.19193039977129       -2.83871775284148
H           -5.63603364244560       -0.27377847192096       -3.04993526858486
H           -4.91708257479331       -3.69879988871301        2.41226372055035
H           -5.28530066070245       -4.96844725120126        1.21696288857038
H           -3.61714333740089       -4.36627321977418        1.37796124597718
H           -3.12074511470907       -2.18920236373027        2.12929400049493
H           -2.21239376725919        0.06308782157401        2.04172771549298
H           -3.05290797654057        2.42012430305718       -1.85340793481165
H           -1.67924232701712        3.27350519833628       -1.14851076077849
H           -1.79438182920390        0.27298752613837       -1.62924431393464
H           -1.05450136373388        1.41351057319298       -2.73632674164672
H           -0.72884528411297        1.63596632815877        0.73527146940036
H            0.68378342953099        1.99708038945672       -1.02601303074862
H            2.14144315986072       -0.71305828959769        0.70230786145740
H            2.33574984180974        0.91340488853228        0.06157539415340
H            2.85196172156631       -0.03350619619975       -2.17940040917333
H            2.79064202797014       -1.67943081732464       -1.49730669329171
H            4.69006389943620        1.49206527664660       -1.57800235374975
H            6.98326877538893        1.72526118466424       -0.78708901990795
H            8.68836434589677        1.80096874074315        0.83066959549603
H            9.26288293624807        1.15313972275547       -0.73281953015808
H           10.09399722355352        0.71555535058648        0.77716489848328
H            7.20080657740389       -4.28117983822775        1.62626270470402
H            5.57247528314666       -3.57214087947674        1.75401347457638
H            6.17946109023646       -4.14381017456765        0.17356037873517
H            4.53257217441159       -2.48053105900749       -0.05027161076950
H           -0.28129479480991       -1.61198338885717       -1.66254308817751
H           -1.04988089087197       -1.18501044283997       -0.12446881177186
H            0.49635610731940       -2.05847044654938       -0.12609164698798
H           -4.70425273413373        2.94939544159646       -0.18648036023497
H           -3.81290257131848        2.94172718696131        2.71676388309778
H           -4.92107243595119        1.76820016175030        1.99625214867258
H           -5.38976975200043        3.46609727750551        2.13179723439345
H           -2.68423809979910        4.69137468596754        1.25292942816645
H           -3.13389404647781        4.81661627765990       -0.45758140220260
H           -4.31219340922315        5.19437392353342        0.79286698957754
H           -0.67377228883652        2.84126789221123        2.75180914320379
