72
 energy: 6.466284203735 xtb: 6.6.1 (8d0f1dd)
N           -1.69276314347721        3.01304717113769        2.26305266456643
C           -1.71770545125803        2.23480485451709        1.27672484878519
C           -2.88207060383930        2.11776940209763        0.32051212008013
C           -3.43215791512166        0.70181944861276        0.37338100651193
C           -4.36639211772745        0.26910378675586       -0.57006902130510
C           -4.89114083807508       -1.01019801645227       -0.53695706488962
O           -5.81229563728795       -1.50525451830692       -1.41762109506391
C           -6.34344088523642       -0.63624135167561       -2.38309437937516
C           -4.46905038325672       -1.91173333715912        0.46420127791152
O           -5.03217261062698       -3.15484770974349        0.41600625939273
C           -4.70712740470944       -4.06124259224650        1.43651736984189
C           -3.55277191684377       -1.47875708582829        1.40441877529365
C           -3.04519914196057       -0.18616651054388        1.35952012095037
C           -2.28089646893264        2.39652745604330       -1.07893666920607
C           -1.32112367495601        1.32021444549309       -1.63261458074422
C           -0.00642126005395        1.25317945202000       -0.91126704175807
N            0.60235039127324        0.02538573191879       -0.59193163238935
C            1.96969570632108       -0.11217581923281       -0.17948700919374
C            3.16739939581533       -0.79654688153465       -1.21440886073158
C            4.61102842366928       -0.65733115770915       -0.83616292918906
C            5.29739232870557        0.52613365807266       -1.07487446681245
C            6.60133658263681        0.70121069047026       -0.64670613852151
C            7.25654591161760       -0.32273277014087        0.01041790878034
O            8.52035008216210       -0.26207229568013        0.51298112458509
C            9.24230851457353        0.92977079147505        0.35005578716842
C            6.59672845197326       -1.55505469665409        0.19181187296270
O            7.32473123692596       -2.51154072160125        0.83188515633662
C            6.74399047584135       -3.77085621408171        1.03988686831674
C            5.29902038219454       -1.71146681640097       -0.24354900486009
C           -0.16715763963831       -1.19706404703254       -0.64352656356775
C           -4.06307090452876        3.10004697467718        0.58744591123269
C           -4.68308851756633        2.82617194582475        1.95422614619761
C           -3.65475123130965        4.56784279354511        0.50187666172240
H           -4.69066365571012        0.94855041166656       -1.34415818011550
H           -6.82900813947271        0.23102690663725       -1.92517173970624
H           -7.08765981403859       -1.21604268141504       -2.92678060573401
H           -5.57678970970878       -0.28700118654484       -3.08061698773175
H           -4.99021768871429       -3.67549217371448        2.42329835298702
H           -5.28288357938631       -4.96129448235066        1.22799154445886
H           -3.63830626065730       -4.30765235080774        1.42799165873757
H           -3.22710923732040       -2.13468727652017        2.19486751649683
H           -2.35370451354722        0.13031343436230        2.12424747718514
H           -3.10639108054243        2.50837300085240       -1.78464537861854
H           -1.74146932181350        3.34084171134211       -1.03553764790842
H           -1.84102005528501        0.36897162623888       -1.58831399609882
H           -1.16616640879133        1.51534359927827       -2.71754143895047
H           -0.84805386755000        1.61680965450479        0.93348827403755
H            0.66822203109212        2.08518013152194       -1.06714959985207
H            2.02150933683374       -0.75703139625498        0.69969992621727
H            2.27347836236744        0.88087391139767        0.14348377653949
H            3.01137272728709       -0.24256404367526       -2.16371429489731
H            2.97099786758808       -1.86375075581108       -1.37127037320714
H            4.82012250438039        1.34201431252936       -1.59550010099832
H            7.09204308552982        1.64648578458741       -0.81768007141958
H            8.76012844504531        1.76981521678179        0.85888506270522
H            9.38687128423014        1.17861151938684       -0.70691879258153
H           10.20910760588039        0.74994298562980        0.81072520274851
H            7.50239042163459       -4.35638714724197        1.55727387803727
H            5.84765735401174       -3.71056179174497        1.66651151405911
H            6.49281777328771       -4.26074204553411        0.09272866862278
H            4.79311206939183       -2.65377271413432       -0.11677270163036
H           -0.38038446710921       -1.51815002927322       -1.67093927708923
H           -1.11840243099945       -1.06582617884555       -0.13032457845983
H            0.37941272719080       -2.00801566855107       -0.14102582024234
H           -4.82767407811932        2.92147314510141       -0.18138232648106
H           -3.94681151145056        3.01920096473572        2.72283417426224
H           -5.01568406866543        1.79368257069501        2.02901923114827
H           -5.53403394416847        3.48300660631441        2.12480751950532
H           -2.85730627212739        4.75313224160738        1.20976956659997
H           -3.32594391775667        4.83093896953077       -0.49950247037335
H           -4.50018829648133        5.20727975357826        0.75456962817908
H           -0.82748596127390        3.01157359767417        2.78859372158154
