72
 energy: 41.952062147031 xtb: 6.6.1 (8d0f1dd)
N           -2.00328909930479        3.31103118291071        2.29023212725774
C           -1.98835841099924        2.40746062690162        1.41310693023790
C           -3.09587358075240        2.21169501831980        0.39883074313225
C           -3.59644610197501        0.77767826614129        0.43134559167165
C           -4.44664634796478        0.30359903376448       -0.57445697118734
C           -4.93392294670626       -0.99135354642270       -0.55823133548547
O           -5.77314993376010       -1.52663722636889       -1.49456519548608
C           -6.27027925472963       -0.68243746915640       -2.49925724739354
C           -4.56092311548873       -1.86423663152195        0.49026785811567
O           -5.08520276526315       -3.12276117923168        0.42726454186971
C           -4.78208459135223       -4.01289686784209        1.47070626927503
C           -3.73055819734709       -1.39004206698938        1.48990153489948
C           -3.26192234046116       -0.08156538419705        1.46268750836142
C           -2.46462769519560        2.53653683170922       -0.97389031712889
C           -1.50592628530579        1.48374995777863       -1.54718881866214
C           -0.22589688920107        1.36335248956133       -0.80869452901147
N            0.34364262017012        0.22381243441985       -0.46085530437826
C            1.53106443583364        0.14795647660227        0.11574888949843
C            3.76693986046162       -1.27663532909044       -1.40790883912537
C            5.03232284145418       -1.00062394735510       -0.94838072416938
C            5.62449028052488        0.26326728578104       -1.13445554950744
C            6.89174523921586        0.52281849774106       -0.69943244775508
C            7.60664414831732       -0.47369708694527       -0.05742416556014
O            8.85161401100607       -0.34163533275923        0.46665456047760
C            9.47978291095555        0.90869934722950        0.38568059831805
C            7.03877831795370       -1.76145027012293        0.07795036083267
O            7.82930441566506       -2.67937550238580        0.68318444164717
C            7.31741554419119       -3.96867160464576        0.88277044633526
C            5.78173242966815       -2.01878051886962       -0.35677454541180
C           -0.36966079032092       -1.03805959115874       -0.61987323954564
C           -4.32759551884309        3.13741466555475        0.60247195653984
C           -4.93150969083049        2.89612893241241        1.97935300697235
C           -4.00212207802060        4.62066383999844        0.43799260518766
H           -4.72894447645978        0.95689234169920       -1.38881963344150
H           -6.80704972806003        0.17687308709429       -2.08627889707806
H           -6.96172825201464       -1.28866014566927       -3.08223655996317
H           -5.47071567916079       -0.31960363820993       -3.14948157082782
H           -5.14256814127335       -3.63550266612551        2.43586147159648
H           -5.30961024313380       -4.93468154352150        1.23106643144074
H           -3.70528735458616       -4.21323787109798        1.53223835561435
H           -3.44411828384941       -2.02337007135987        2.31444833887296
H           -2.64251038836657        0.26508258759084        2.27627634754941
H           -3.27223360704892        2.67045224584976       -1.69711720066326
H           -1.92769195195920        3.47949109315585       -0.88508322398785
H           -2.01969625025085        0.52853585858064       -1.56148527020216
H           -1.32388978550128        1.74355386115564       -2.60677786637932
H           -1.13628842562667        1.70866140109870        1.26286570465743
H            0.39673298699475        2.25537413632219       -0.75364259255411
H            1.77479605451287       -0.73009722669220        0.68356154520294
H            1.98347594228295        1.07431911166818        0.41591638687196
H            3.32211133462186       -0.60158881157874       -2.13635828979930
H            3.43742519594974       -2.29593034914496       -1.36158193548870
H            5.09451169120741        1.04682465448209       -1.64585097181100
H            7.31730989517974        1.49840892160830       -0.86203496146269
H            8.91189440249707        1.68901147395471        0.90404105203161
H            9.64146266109742        1.21377193225399       -0.65429513471965
H           10.43922730222733        0.78155017933869        0.88251600472989
H            8.10885069785223       -4.48610093802862        1.41690731809565
H            6.40422025725128       -3.97917602410107        1.49334977808574
H            7.12365947591295       -4.47786219931679       -0.06812711051723
H            5.33012885932898       -2.98886738279230       -0.28353920401781
H           -0.54937221525179       -1.29730659228221       -1.66751907923541
H           -1.32305260616068       -0.90769224361615       -0.12091921000112
H            0.16477013310766       -1.88055963933228       -0.15378395501907
H           -5.07897826258752        2.86629478848373       -0.15527600158885
H           -4.21596287035122        3.17906640390836        2.74173172408047
H           -5.19729270056449        1.84886417347254        2.10617300523416
H           -5.82331889920338        3.50448435037748        2.10426438062207
H           -3.20248041995393        4.89021994760735        1.11802829121864
H           -3.71225580585172        4.85707580262808       -0.58226947471735
H           -4.87916963019265        5.21712063678069        0.68027342538657
H           -1.14677397966281        3.36095615280317        2.83567911869359
