25
 energy: 0.000000000000 xtb: 6.6.1 (8d0f1dd)
C            3.23720132972391        1.16630909158653        0.08434468864950
N            2.29877796055224        0.07527476373246        0.03981602671198
C            2.58028186251803       -1.21425391179017        0.03006175752192
N            1.43813944744728       -1.93419254010258        0.00098261751768
C            0.39035684826767       -1.05887462812143       -0.00790371763344
C            0.93510047688824        0.21347817468824        0.01709077332874
C            0.09450143016486        1.40504290868848       -0.00410946993748
O            0.49712746915594        2.54126690785742       -0.00342325656480
N           -1.25076628431515        1.06271869620815       -0.03085477937476
C           -2.21907191394203        2.15522079838987       -0.05001256521996
C           -1.81739470187490       -0.20012724136556       -0.04692818139228
O           -2.99983858926755       -0.37846413507442       -0.07008877579474
N           -0.92618577614240       -1.30210203518959       -0.03682761236648
C           -1.46982251276835       -2.64643077634382       -0.06029819901142
H            3.71247229913541        1.21471443890471        1.06488839270555
H            4.00791460421487        1.03430799217987       -0.67357688121503
H            2.69909982127087        2.09770098766290       -0.09130154035862
H            3.56654087521359       -1.63682977417947        0.04233139674524
H           -1.67107945562430        3.09322822573871       -0.02552706696334
H           -2.82428927394145        2.09428605349656       -0.95318074103337
H           -2.87644002486466        2.07745706351925        0.81450059976605
H           -1.17061985538665       -3.19584861009707        0.83242224714061
H           -1.14560246782873       -3.17511580834413       -0.95688266944647
H           -2.55549768731684       -2.55659960601237       -0.07459039105944
H            1.38130842369251       -2.94313824728853       -0.01389874052104
25
 energy: -5.718992734104 xtb: 6.6.1 (8d0f1dd)
C            3.24126416810644        1.17714775091754        0.08708456153804
N            2.30422746590376        0.10643338024893        0.03005230799033
C            2.60319463832410       -1.23538277605893        0.02225083366861
N            1.42214248051328       -1.93441248748182       -0.00770389917716
C            0.39829630123916       -1.05933532647553       -0.01107118355602
C            0.91872759395651        0.22873454752565        0.01024639868913
C            0.11653004786925        1.38995232307569       -0.00870430149866
O            0.49516895229582        2.56478947191442       -0.00274977783837
N           -1.26750743199180        1.05147439174221       -0.03816446898973
C           -2.21550149963868        2.15576726877267       -0.05047358607806
C           -1.81613515162439       -0.19680674715414       -0.05016235642458
O           -3.01614878048668       -0.37843318219679       -0.07415291686500
N           -0.94024870219843       -1.31227297819637       -0.01030518763224
C           -1.47317247529385       -2.66198936776591       -0.03433138050683
H            3.71886365279557        1.22122034666236        1.07040693649572
H            4.01167738409750        1.04198135025553       -0.67429462961225
H            2.69925204031808        2.10493536071493       -0.08814483001582
H            3.58035421297343       -1.64618075932881        0.03425134163094
H           -1.65270504832947        3.08834120131648       -0.02574092248017
H           -2.82312331265623        2.10589498381789       -0.95340684869800
H           -2.87225227045697        2.08889421545279        0.81675846717091
H           -1.22975213464241       -3.27349403515261        0.84691002370802
H           -1.10952004201294       -3.19663735927522       -0.91316191264446
H           -2.55414819266299       -2.55190534114801       -0.11191265163078
H            1.36903859016028       -2.93827950508786       -0.02300034684744
25
 energy: -4.128688615951 xtb: 6.6.1 (8d0f1dd)
C            3.24191151971204        1.18238198471300        0.08916524703078
N            2.30560859915577        0.10996636887275        0.02505731759412
C            2.60607762953892       -1.23291606138272        0.01159834167343
N            1.42393602055848       -1.93122489052357       -0.01852295340653
C            0.39702503795345       -1.05946498230414       -0.01527256295378
C            0.91842338674110        0.23054715218600        0.00529817843393
C            0.11934782526627        1.39262365350454       -0.01346897650769
O            0.49742664883510        2.56784994203429       -0.00500822748105
N           -1.26646070221409        1.05217410570910       -0.04535628305207
C           -2.21100240847381        2.16183288642969       -0.05168730665791
C           -1.81565384104184       -0.19733806088195       -0.04878290094577
O           -3.01655851324075       -0.37330442659859       -0.08350602932876
N           -0.94251173386377       -1.32535083413124        0.01442249322196
C           -1.47898745275628       -2.68440345678656       -0.00861345709839
H            3.71923493104523        1.22368352672068        1.07345001121382
H            4.01362316662841        1.05365296171768       -0.67230695020974
H            2.69944701924523        2.11121478371115       -0.08129269092984
H            3.58339530984750       -1.64577905125914        0.02627137211360
H           -1.64317302830664        3.09235928702155       -0.02733232089699
H           -2.82500201153189        2.11983960254677       -0.95080351622012
H           -2.86372612233108        2.09899762423078        0.81915873496011
H           -1.29532541231275       -3.34536526491417        0.86375010052791
H           -1.07821456475925       -3.22220194984588       -0.86878849440845
H           -2.55417999905272       -2.55749671173479       -0.14399564794175
H            1.36768075384200       -2.93497082706403       -0.03754248589072
25
 energy: -1.522898821779 xtb: 6.6.1 (8d0f1dd)
C            3.24219515885075        1.18720954174471        0.09097201308437
N            2.30521829705724        0.11464968275878        0.01935121445258
C            2.60727272268776       -1.22875123407104       -0.00054866696211
N            1.42476086605536       -1.92723705761512       -0.02826208647259
C            0.39360050855131       -1.06004573445254       -0.01950738455727
C            0.91620492846236        0.23251344879638       -0.00012428766554
C            0.12143510993883        1.39520772880924       -0.01816568389450
O            0.49848766798456        2.57144787750986       -0.00669105874240
N           -1.26634909555447        1.05294707217841       -0.05106595824781
C           -2.20656804400371        2.16781166031798       -0.05227832144071
C           -1.81718311969556       -0.19674817253456       -0.04686327896370
O           -3.01820939870592       -0.36755103249586       -0.08999636545527
N           -0.94680977654625       -1.33802059850171        0.03717089601794
C           -1.48712894013973       -2.70839356372482        0.01504420895636
H            3.71938761188458        1.22600191909261        1.07632039113259
H            4.01515092741549        1.06139771340276       -0.67003321254443
H            2.70049563301263        2.11715542685315       -0.07659065812248
H            3.58508559702979       -1.64187513076369        0.01789408921603
H           -1.63265877368780        3.09564648007824       -0.02843741766013
H           -2.82446041965411        2.13181712596068       -0.94898581995968
H           -2.85673417130085        2.10957699684189        0.82114529410057
H           -1.36538793856524       -3.41510708466686        0.87837582294088
H           -1.04356339089873       -3.24754013193346       -0.82347213041719
H           -2.55220248023567       -2.56234232431695       -0.18173468799400
H            1.36710771433513       -2.93086960747007       -0.04952057463084
25
 energy: 2.108054952945 xtb: 6.6.1 (8d0f1dd)
C            3.24220760825239        1.19196419169084        0.09251945144253
N            2.30354334545673        0.12009691469862        0.01328084647452
C            2.60687377924029       -1.22331132302201       -0.01355423159777
N            1.42434089358349       -1.92237905422972       -0.03651984970306
C            0.38751536358183       -1.06072781804800       -0.02242323889680
C            0.91243816491943        0.23470215800336       -0.00468017700492
C            0.12265218087262        1.39863104442387       -0.02216105627486
O            0.49902904902713        2.57563673813039       -0.00961135268381
N           -1.26679552312359        1.05510924316898       -0.05541515030701
C           -2.20246014307355        2.17438314155783       -0.05215045903655
C           -1.81971989844716       -0.19497437989499       -0.04427111452480
O           -3.02059162665293       -0.36051987741605       -0.09871668295115
N           -0.95408977828134       -1.34991616816150        0.05863892443410
C           -1.49802049904124       -2.73507046722829        0.03703619548654
H            3.71955431258907        1.22898694295249        1.07893680838049
H            4.01644109284778        1.06786107700667       -0.66784568353518
H            2.70206144453294        2.12316391450323       -0.07305032128035
H            3.58567283465650       -1.63551564170184        0.00784346696948
H           -1.62217785347932        3.09919054219354       -0.02723358388793
H           -2.82296445310313        2.14472319728703       -0.94728111381483
H           -2.85081707188668        2.11922388215218        0.82306165070685
H           -1.43834397047982       -3.48361228960962        0.89371758707903
H           -1.00891815226094       -3.27244002161206       -0.77793579830918
H           -2.54873212375890       -2.56812563154470       -0.22029270292455
H            1.36702987569889       -2.92602934972987       -0.05993485127555
25
 energy: 6.451939269330 xtb: 6.6.1 (8d0f1dd)
C            3.24284858476833        1.19705051046772        0.09440225394418
N            2.30212342407274        0.12647746588547        0.00644879141834
C            2.60525402922204       -1.21733950959266       -0.02635645209966
N            1.42275132718793       -1.91667801967960       -0.04462195547379
C            0.38250680248131       -1.05842139653646       -0.02730465590447
C            0.90934619174548        0.23894721058702       -0.01024157635499
C            0.12426801835186        1.40473810793929       -0.02677520442985
O            0.50070937248476        2.58194181180934       -0.01467013112959
N           -1.26642443318708        1.06062106175575       -0.05817395205596
C           -2.19824840142323        2.18249509380773       -0.05126682851056
C           -1.82188268484395       -0.18943878648881       -0.04799892411507
O           -3.02269242342974       -0.35109112848932       -0.10868670793825
N           -0.96048592633477       -1.35246776732896        0.05705819593846
C           -1.50949410268892       -2.75031854400494        0.04435778659541
H            3.71970966033612        1.23041836323903        1.08211343015830
H            4.01857696509793        1.07493044993375       -0.66505952209666
H            2.70501476226911        2.12997966015259       -0.06872750785545
H            3.58466838729419       -1.62922474768590       -0.00309902596220
H           -1.61297215128795        3.10475601209649       -0.02509979655009
H           -2.82121126383378        2.15800284593893       -0.94486259963806
H           -2.84459701582611        2.12846367885805        0.82552287779487
H           -1.50911772795693       -3.54448415630216        0.90368205747836
H           -0.97518729233906       -3.29532700972957       -0.73575136979949
H           -2.54498108966413       -2.58395262911150       -0.26216019830696
H            1.36645924302538       -2.92035572810695       -0.06940375092290
25
 energy: 11.684162501799 xtb: 6.6.1 (8d0f1dd)
C            3.24342953234778        1.20184691096975        0.09676915851991
N            2.30168699934717        0.13237326000317       -0.00205466798027
C            2.60430554167858       -1.21200704084339       -0.03871344622428
N            1.42196210780333       -1.91092754680536       -0.05965083219982
C            0.38052118326506       -1.05365375001107       -0.03693948304299
C            0.90781690672844        0.24435124250140       -0.01702154211528
C            0.12547927199880        1.41150121816024       -0.02786918764557
O            0.50085312067218        2.58900518781058       -0.01215303641697
N           -1.26616461045956        1.06760512082049       -0.05829059350567
C           -2.19465225278630        2.19127369243951       -0.05234019852966
C           -1.82352531084584       -0.18169435283529       -0.05083007915361
O           -3.02397629797801       -0.34278378854501       -0.11366722481862
N           -0.96269334559519       -1.34781272948592        0.04741114767852
C           -1.51234578187318       -2.74949956037976        0.04702917087101
H            3.71750699422033        1.22790498709145        1.08658307805734
H            4.02074413097735        1.08410517655261       -0.66199016282829
H            2.70696276712167        2.13631379147611       -0.06204540294176
H            3.58364527123571       -1.62483958462955       -0.00773638387686
H           -1.60284600439780        3.10975223548594       -0.03214811399168
H           -2.82207173299207        2.16789228903511       -0.94297224679228
H           -2.83709516397614        2.14335034155020        0.82766439272908
H           -1.57209993493479       -3.59996275140051        0.91495908355199
H           -0.93867333503973       -3.31710321054622       -0.68864911366638
H           -2.53640629765989       -2.59940387135911       -0.29837525980947
H            1.36632283535917       -2.91464033320831       -0.08917554136126
25
 energy: 19.132233861299 xtb: 6.6.1 (8d0f1dd)
C            3.24374952384276        1.20601975871906        0.09799118682382
N            2.30077339375043        0.13795982495700       -0.01133526146123
C            2.60302632195622       -1.20656760555742       -0.05019148990946
N            1.42107324235009       -1.90529112367411       -0.06918961386320
C            0.37919384900082       -1.04801951667226       -0.04325410574679
C            0.90637181625089        0.25026898685890       -0.02225382042012
C            0.12687965409618        1.41886763364287       -0.02947746247446
O            0.50133816687499        2.59660241044934       -0.01529888850135
N           -1.26517420079291        1.07530476978850       -0.05641702670414
C           -2.19084734343952        2.20034084803825       -0.05217270525310
C           -1.82438351104468       -0.17289520034302       -0.05176319793453
O           -3.02436643132734       -0.33316098335126       -0.11925441774945
N           -0.96336454161458       -1.34204688440586        0.03956598091849
C           -1.50745806185292       -2.74641358691181        0.04509851892389
H            3.71440902908394        1.22615416782735        1.08998449675041
H            4.02273577253863        1.09093746075577       -0.65958746636445
H            2.70865550820251        2.14164758402825       -0.05818519063748
H            3.58249488665048       -1.61986451082914       -0.01533780955231
H           -1.59272039086379        3.11503779253164       -0.03401682098960
H           -2.82061609789425        2.17952066283869       -0.94144528256803
H           -2.83127886719573        2.15576820075187        0.82942104107720
H           -1.61932336724401       -3.67656599103667        0.92089088176158
H           -0.90036203267649       -3.32898810310354       -0.64871827056457
H           -2.51998865636970       -2.61569105010584       -0.32745918340475
H            1.36603112225382       -2.90922531784642       -0.10090688607876
25
 energy: 30.605227959329 xtb: 6.6.1 (8d0f1dd)
C            3.24398813338126        1.20996522821623        0.10075867693258
N            2.30037395982556        0.14305380032400       -0.02147345815631
C            2.60107126245258       -1.20051783253627       -0.06298004785359
N            1.42088121064211       -1.89912288203622       -0.08059804038206
C            0.37884624983751       -1.04099766974201       -0.05192770159677
C            0.90583524428583        0.25740905732249       -0.02769091596361
C            0.12910738217281        1.42711036054203       -0.03176743023382
O            0.50471476584132        2.60443716536802       -0.01873298235808
N           -1.26304838786609        1.08466869664868       -0.05623442412578
C           -2.18690441779060        2.21008051233592       -0.05135330284318
C           -1.82437159756526       -0.16157140759699       -0.05652781645942
O           -3.02390119929062       -0.32121640223918       -0.12716395836021
N           -0.96316476737882       -1.33344195736226        0.02507043228557
C           -1.50180524402239       -2.72706000481959        0.03475458306304
H            3.71049235723622        1.22287558895795        1.09499995765445
H            4.02474534151461        1.09863609334050       -0.65551385051060
H            2.70982427387101        2.14668617821477       -0.05172117533477
H            3.58113313498878       -1.61339687117502       -0.02497458911149
H           -1.58368875722334        3.12159617537700       -0.03322545307845
H           -2.81862082960008        2.19233780493334       -0.93944903764050
H           -2.82544842292684        2.16561615040014        0.83157616470495
H           -1.67039775447377       -3.77482262672442        0.94810933031894
H           -0.86442330927470       -3.33783279289904       -0.59762267806042
H           -2.50374544442478       -2.62078769837372       -0.36000949644781
H            1.36644485093678       -2.90358608388259       -0.11437965369180
25
 energy: 51.684566253234 xtb: 6.6.1 (8d0f1dd)
C            3.24545784195006        1.21316739948748        0.10216530470011
N            2.30229014437012        0.14388839286894       -0.02917867912642
C            2.59349064222519       -1.18982774859845       -0.07053289457914
N            1.42347554412204       -1.88951941473297       -0.09336062185281
C            0.37734228442464       -1.02836002594213       -0.06392662713427
C            0.90942541225076        0.26899628658495       -0.03036853983161
C            0.13116372923402        1.43954778394965       -0.03303440937070
O            0.51229712217695        2.61296598194330       -0.01995554217499
N           -1.25630889309866        1.10057724043130       -0.05557531534902
C           -2.18233571844702        2.22279979804460       -0.05120452337967
C           -1.82206353994916       -0.14480651485132       -0.06572069202495
O           -3.02020506163012       -0.30360654048490       -0.13257082880419
N           -0.95764894377543       -1.31190602293440       -0.01117065788915
C           -1.48613020407389       -2.66043804066925       -0.00855961132867
H            3.70751186629208        1.21915196360356        1.09673367246386
H            4.02687024074216        1.10598243942922       -0.65281129956567
H            2.71082076586480        2.15071188445890       -0.04592686628678
H            3.57572128622170       -1.60446642262985       -0.03073417323230
H           -1.57711748556981        3.13264612327656       -0.03676755461259
H           -2.81631863587757        2.20318432607877       -0.93773875006728
H           -2.81934215199694        2.17663863536703        0.83277449499874
H           -1.73777375128131       -3.98165377926514        1.01590762632446
H           -0.82778323704355       -3.33796558110446       -0.53313826202651
H           -2.48860725749125       -2.61819056830017       -0.39086577972556
H            1.36592321351944       -2.89569923221603       -0.12657922409156
25
 energy: 63.762177980335 xtb: 6.6.1 (8d0f1dd)
C            3.24508749909547        1.21660058168566        0.10228830359119
N            2.30334283683325        0.14395203802469       -0.03510721319085
C            2.58606728236633       -1.17932977177262       -0.07652119787383
N            1.42516172781624       -1.88134357324746       -0.10360002887745
C            0.37538791043850       -1.01464157853620       -0.07517367418963
C            0.91476874915722        0.28012115108507       -0.03409991413220
C            0.13317249026218        1.45169979154653       -0.03577381584904
O            0.51887526577564        2.62104254902927       -0.02314091989470
N           -1.24924057961346        1.11608367389945       -0.05732513657704
C           -2.17754029244560        2.23544717263171       -0.05122074069427
C           -1.81912084099147       -0.12993772307912       -0.07583300400277
O           -3.01593081722685       -0.28804214336301       -0.13727587718934
N           -0.95075724061666       -1.28651415770986       -0.04085372804701
C           -1.47218262364081       -2.60233713275261       -0.04697703113854
H            3.70400583603658        1.21890021192461        1.09570274091145
H            4.02785958329432        1.11391676977257       -0.65055410958109
H            2.70945125774612        2.15456433550569       -0.04090594632073
H            3.56939750417383       -1.59582000094554       -0.03475011672447
H           -1.57382513068538        3.14542566103626       -0.03676532908846
H           -2.81298618488082        2.21602050005979       -0.93667170956385
H           -2.81287517452608        2.18818009747552        0.83369941137328
H           -1.79598108857947       -4.17737184643390        1.06009537963343
H           -0.79741567704723       -3.33568846507101       -0.46148293645043
H           -2.47324795533782       -2.61411735170529       -0.41853673189102
H            1.36556996291183       -2.88874864441762       -0.13891832443284
25
 energy: 70.463841771751 xtb: 6.6.1 (8d0f1dd)
C            3.24534060630669        1.22033408633511        0.10381692386950
N            2.30512616803779        0.14523259326416       -0.03508686140958
C            2.58167862719306       -1.17027776507937       -0.07902742230285
N            1.42727783052341       -1.87398343691839       -0.11037787922448
C            0.37514463172515       -1.00165123865681       -0.08595202221005
C            0.92081237233206        0.29048826393947       -0.03687744021228
C            0.13558152281611        1.46167686302131       -0.03890511093388
O            0.52519732047241        2.62844196486524       -0.02499573324049
N           -1.24411624859198        1.12930956027761       -0.06048200912556
C           -2.17418432361285        2.24710406319689       -0.05113956809421
C           -1.81686509246445       -0.11648967918879       -0.08661806951410
O           -3.01316822842852       -0.27482095751590       -0.14178610311800
N           -0.94501257308169       -1.26519593213012       -0.06559916797036
C           -1.46383253542137       -2.55584541966004       -0.07574343434322
H            3.70350125972214        1.22118678594244        1.09513260479202
H            4.02839450268332        1.11959000185126       -0.64814233415496
H            2.70948456377248        2.15876477486213       -0.03600952068355
H            3.56543238090427       -1.58768281138778       -0.03615844703600
H           -1.57248336989207        3.15820933038915       -0.03590733811299
H           -2.81043802459561        2.22906990851459       -0.93606153016803
H           -2.80826580974467        2.19916890423556        0.83438393301054
H           -1.83987293709585       -4.34523417432769        1.08625386876511
H           -0.78114609871652       -3.33250274695379       -0.38877682759546
H           -2.46759244859322       -2.59123708554138       -0.43032254936500
H            1.36741676878338       -2.88182171102992       -0.14963174138936
25
 energy: 74.294792161252 xtb: 6.6.1 (8d0f1dd)
C            3.24622542759700        1.22229844948600        0.10445475389348
N            2.30636875950699        0.14473156928987       -0.02641745805123
C            2.57746131669101       -1.16324483237537       -0.07607021262926
N            1.42924340231024       -1.86778379592075       -0.11625936358022
C            0.37372865813056       -0.99117993663803       -0.09723942139505
C            0.92607024721582        0.29883659415004       -0.03882276750639
C            0.13767401164360        1.46893557473930       -0.04137775599674
O            0.52974132877528        2.63357841370622       -0.01730557861773
N           -1.24022378042444        1.14033620821103       -0.06439855104452
C           -2.17216822991373        2.25754246315653       -0.05046384433748
C           -1.81521328551263       -0.10360774765153       -0.09751899603380
O           -3.01108225948123       -0.26286239961470       -0.14145816827048
N           -0.94337884178338       -1.24761351143530       -0.09067916499061
C           -1.47147798259191       -2.51424828462833       -0.10564774734511
H            3.70629332603418        1.22273918178242        1.09295010968262
H            4.02919267929306        1.12470563860647       -0.64643781701760
H            2.71034893708753        2.16219407671857       -0.02978196403731
H            3.56162556435738       -1.58045025067486       -0.03574776636445
H           -1.57500409634978        3.17063566474492       -0.03643965259042
H           -2.80938495291337        2.24121878144470       -0.93482612261237
H           -2.80429159727958        2.21047757320373        0.83593409668605
H           -1.85339446214482       -4.50590286059010        1.11048065409224
H           -0.79218175514503       -3.32485733666274       -0.31864100754435
H           -2.49276636743214       -2.56965157486381       -0.42103228193625
H            1.37043450756675       -2.87526284119046       -0.15926171159928
25
 energy: 76.389417485633 xtb: 6.6.1 (8d0f1dd)
C            3.24831431489798        1.22393618446837        0.10452257733948
N            2.30838937132824        0.14447322870596       -0.01788547970973
C            2.57433580179487       -1.15778681828021       -0.06866750113211
N            1.43185410960413       -1.86224355134319       -0.11915497978389
C            0.37426921237884       -0.98341398337935       -0.10396632029155
C            0.93139182007746        0.30589919443836       -0.03907010650337
C            0.13985628209352        1.47416704070040       -0.04218609813107
O            0.53440792587439        2.63901576182396       -0.01550073390524
N           -1.23706755834932        1.14710287891631       -0.06837332810412
C           -2.17075912885514        2.26477145475555       -0.04782346999566
C           -1.81365551118402       -0.09554728087261       -0.10727911504737
O           -3.00943932519361       -0.25922213524317       -0.13878793715192
N           -0.94062541951995       -1.23439809061869       -0.11126904164049
C           -1.47520258822988       -2.48298055719121       -0.12864092294877
H            3.70819999752166        1.22740022402485        1.09318179775071
H            4.03207341671695        1.12993260328910       -0.64458435768307
H            2.71333355846142        2.16507838150509       -0.02858930579415
H            3.55694558703055       -1.57876981668397       -0.03725092938699
H           -1.57991588535781        3.17982139711519       -0.03344207245484
H           -2.81032795579050        2.25290233863214       -0.92975008778970
H           -2.79913951136051        2.21912503260937        0.84110194533870
H           -1.86516724880048       -4.65430414004621        1.13514696060909
H           -0.81296047141204       -3.32056176299283       -0.25145930290012
H           -2.50625014223003       -2.55409378949025       -0.40269977415403
H            1.37315261820362       -2.86845824704052       -0.16926597480273
25
 energy: 77.216619679053 xtb: 6.6.1 (8d0f1dd)
C            3.25057027739790        1.22437518758361        0.10271670025352
N            2.31048186058391        0.14337960901230       -0.00914213130975
C            2.57426433366618       -1.15516741242741       -0.05902771177719
N            1.43637360464077       -1.86062359176100       -0.11732672071450
C            0.37794860507362       -0.97956553596652       -0.10929626254741
C            0.93558992026411        0.31125901220159       -0.04041069926931
C            0.14047116403400        1.47795933840130       -0.04082255146399
O            0.53797746724520        2.64355789160281       -0.01070417607993
N           -1.23400115062631        1.15136545922335       -0.07133562044057
C           -2.17086630896028        2.26787159043397       -0.04594177501138
C           -1.81181928639781       -0.08972450002724       -0.11545690548778
O           -3.00857462696440       -0.25411643672316       -0.13433663544710
N           -0.93711491347132       -1.22640872021644       -0.13124591982734
C           -1.47742709802425       -2.46305913004890       -0.16206175055666
H            3.71041752882279        1.23364974137494        1.09239168849601
H            4.03320585817621        1.13153874508581       -0.64802984760650
H            2.71460895122502        2.16499891468445       -0.03443340935863
H            3.55764201666996       -1.57796439686040       -0.03047267765771
H           -1.58734869679908        3.18484502522394       -0.02727825148142
H           -2.81140920884451        2.25566538040510       -0.92681681354576
H           -2.79853294233455        2.21515070435593        0.84274243468969
H           -1.86558888861437       -4.78307226673608        1.17024714563161
H           -0.84534783732988       -3.32735490519170       -0.21227107302137
H           -2.52154360755193       -2.54097501219897       -0.36180670808714
H            1.37036098527619       -2.86542600564295       -0.17070953611610
25
 energy: 77.562525194688 xtb: 6.6.1 (8d0f1dd)
C            3.25117309816825        1.22480373693459        0.10420723161198
N            2.31028042981634        0.14166706399323        0.00061590153786
C            2.57295192381763       -1.15521331582988       -0.04737265394285
N            1.43867884141027       -1.86488315892785       -0.11653854543508
C            0.37808589511611       -0.97994348300532       -0.12149270461241
C            0.93633942044522        0.31331233962515       -0.04515314938764
C            0.14146061477540        1.47945628671333       -0.04148301386851
O            0.54031309898976        2.64565056953506       -0.00538723559653
N           -1.23133201129516        1.15295296862222       -0.07775719404648
C           -2.17271231742957        2.26612524427810       -0.04600000644004
C           -1.81027531705401       -0.08457714545845       -0.12639369606690
O           -3.00812801757197       -0.24290824664359       -0.13922986313147
N           -0.93859979834891       -1.22543929607714       -0.15196524132259
C           -1.49516225215238       -2.45493909868833       -0.18517953766337
H            3.71484599277985        1.23854468857002        1.09223720545207
H            4.02885026257791        1.12643805766956       -0.65199900203009
H            2.71116095537311        2.16227266620821       -0.03852041249847
H            3.55841985198759       -1.57759094523920       -0.01729912692887
H           -1.59636849249816        3.18664191326855       -0.03256269336121
H           -2.81430234315220        2.24472385740312       -0.92613854481566
H           -2.80173703140125        2.20579427534905        0.84203443817104
H           -1.81699849406860       -4.89263148285473        1.24105721472857
H           -0.88732116541061       -3.32179165038555       -0.25708363582696
H           -2.54494524614509       -2.52416474397375       -0.32354015316423
H            1.36858376585930       -2.87121338949618       -0.16033767352742
25
 energy: 77.657517102494 xtb: 6.6.1 (8d0f1dd)
C            3.25322528172715        1.22515633621701        0.10553632504753
N            2.31047602579024        0.14232493747629        0.00975840374512
C            2.57362198333108       -1.15400513037580       -0.03594829921611
N            1.44217368008598       -1.86611486112569       -0.11430958303923
C            0.37803851076118       -0.98028378497488       -0.12445134356715
C            0.93634363092480        0.31578408154543       -0.04632823560264
C            0.14445832926242        1.48334245807699       -0.04067015242426
O            0.54185816055681        2.64952281007351       -0.00546216810905
N           -1.22915622436750        1.15593683782385       -0.08185350548031
C           -2.17450423668810        2.26375256125910       -0.04676091663388
C           -1.80858083863025       -0.08053155025266       -0.13290662785290
O           -3.00733148564985       -0.23583125517448       -0.14327411814781
N           -0.93951606233978       -1.22688883648300       -0.16998511477173
C           -1.50672959326479       -2.44877861207349       -0.21989565657894
H            3.71883453311730        1.24032304575179        1.09234997965535
H            4.02730743869144        1.12063420370034       -0.65387303969349
H            2.70877107423287        2.15914498425432       -0.04195039465141
H            3.55959336172053       -1.57804904848650       -0.00575712620044
H           -1.60658152580084        3.19066240354706       -0.02671050326889
H           -2.81534901356732        2.23480025731697       -0.92681403271596
H           -2.80539947286293        2.19611346415685        0.84010459398913
H           -1.72195265029229       -4.98154976213443        1.26498332070292
H           -0.91281342579641       -3.31693467590857       -0.28898729332382
H           -2.56183634339633       -2.49735936633482       -0.30443868183702
H            1.37194180167988       -2.87324657280441       -0.14719638128565
25
 energy: 77.722769871712 xtb: 6.6.1 (8d0f1dd)
C            3.25217415265652        1.22404744989564        0.10426927799869
N            2.30854315887583        0.14449020405328        0.00989202285548
C            2.57485711888692       -1.15244489521419       -0.03247494514868
N            1.44300221513372       -1.86380276840237       -0.11567915824535
C            0.37559657952792       -0.98327648091486       -0.11519135293577
C            0.93281548000859        0.31386056956388       -0.04143277405581
C            0.14176863100979        1.48092786966630       -0.03837786242036
O            0.53939214023349        2.64710425595998       -0.01291830509715
N           -1.23119420632904        1.15362524262763       -0.08200209181082
C           -2.17689140454441        2.26094633006981       -0.05139906583747
C           -1.80909470778740       -0.08502174537916       -0.12603989013386
O           -3.00797589035554       -0.24177324089145       -0.13096519586507
N           -0.94150196847410       -1.23625864984495       -0.18448817000546
C           -1.50726465428324       -2.45874566363855       -0.26211353968412
H            3.71724690780403        1.23632074189580        1.09132340205326
H            4.02780168768999        1.11590295009001       -0.65338715569892
H            2.70719458333447        2.15748158297937       -0.04545086899518
H            3.55920428881605       -1.58038957564943       -0.00683071154922
H           -1.60786408649189        3.18788512567794       -0.02773006645775
H           -2.81345095715657        2.22672339177237       -0.93535100836313
H           -2.81048716920106        2.18847254628141        0.83221487708484
H           -1.68373092729926       -5.07445153174987        1.32298029533809
H           -0.91694347154659       -3.34926933128330       -0.27581674258438
H           -2.57152991960872       -2.49045578234914       -0.30478346094689
H            1.37097725918112       -2.87011330761060       -0.14153207044763
25
 energy: 77.407441658920 xtb: 6.6.1 (8d0f1dd)
C            3.24981781107211        1.22118977094875        0.10564461823800
N            2.30520800710923        0.14209832347098        0.00823490419458
C            2.57365589851729       -1.15565380296952       -0.03438492568040
N            1.43991735168315       -1.86521836094834       -0.11751248914238
C            0.37172085249305       -0.98768384696739       -0.11486983983806
C            0.92918801904772        0.30924284907057       -0.04142979500336
C            0.13991178269305        1.47695776222037       -0.03784842973408
O            0.53676554050787        2.64292793840445       -0.01050927331388
N           -1.23521638086705        1.15151347311289       -0.07797139869230
C           -2.17882756318221        2.26209305118324       -0.04801093590545
C           -1.81125385095568       -0.08586297415664       -0.12480200805628
O           -3.00900237570232       -0.24825532736697       -0.13646972360426
N           -0.94570380317784       -1.23998081345749       -0.18113104151223
C           -1.51163070630237       -2.46023950276764       -0.29969953569921
H            3.71459671027290        1.23391962159194        1.09282602822432
H            4.02754571291242        1.11711382608356       -0.65048585794096
H            2.70810688780340        2.15695004046642       -0.04083254599864
H            3.55861293478608       -1.57926046052550       -0.01214298744418
H           -1.59959713636681        3.18303846341565       -0.02914074785454
H           -2.81701060783153        2.23005582961812       -0.93082412204933
H           -2.81098972368889        2.18952609819361        0.83677028389977
H           -1.62447246058757       -5.02127300234468        1.39381399212890
H           -0.89940555039068       -3.33847512631302       -0.31931474156182
H           -2.58040352889740       -2.49240424667345       -0.33120660125295
H            1.36772740922158       -2.87133516103194       -0.14504803733412
25
 energy: 77.575972794969 xtb: 6.6.1 (8d0f1dd)
C            3.25015130954258        1.22154211949367        0.10570833197508
N            2.30601589591491        0.14106177541976        0.00833258308144
C            2.57426340080296       -1.15609170808145       -0.03563566388833
N            1.44126622602118       -1.86675358640378       -0.11745844419086
C            0.37377009481193       -0.98823052728434       -0.11799518511189
C            0.93030883526440        0.30740097844774       -0.03929722808560
C            0.13848313129104        1.47578583383980       -0.03756929345333
O            0.53608338301202        2.64050107483504       -0.01149565849771
N           -1.23689616499699        1.15372055694875       -0.07512985017350
C           -2.17963315538606        2.26545076600416       -0.04644872634955
C           -1.81309974342491       -0.08338382865117       -0.12457231743446
O           -3.01045952371227       -0.24732456858162       -0.13250246115899
N           -0.94382888316046       -1.23648717914939       -0.18418049158905
C           -1.50731620341937       -2.45427602889443       -0.32914911379396
H            3.71512876188134        1.23428325052843        1.09278830589090
H            4.02686459654260        1.11566676817248       -0.65105654864188
H            2.71084098573879        2.15856836464974       -0.04206785943659
H            3.56010293068791       -1.57922004634530       -0.01266987905774
H           -1.60415901399362        3.18857213789144       -0.02722635077232
H           -2.81705496716229        2.23481319797119       -0.92960876109194
H           -2.81179683805701        2.19429628473481        0.83828713080519
H           -1.62266784051184       -5.02630021264067        1.47208083549380
H           -0.90389944361034       -3.33856038613058       -0.28635576717788
H           -2.57549178058907       -2.49253147257750       -0.33877936447217
H            1.37523831148500       -2.87347477545280       -0.15096431067410
