25
 energy: 0.000000000000 xtb: 6.6.1 (8d0f1dd)
C            3.23720132972391        1.16630909158653        0.08434468864950
N            2.29877796055224        0.07527476373246        0.03981602671198
C            2.58028186251803       -1.21425391179017        0.03006175752192
N            1.43813944744728       -1.93419254010258        0.00098261751768
C            0.39035684826767       -1.05887462812143       -0.00790371763344
C            0.93510047688824        0.21347817468824        0.01709077332874
C            0.09450143016486        1.40504290868848       -0.00410946993748
O            0.49712746915594        2.54126690785742       -0.00342325656480
N           -1.25076628431515        1.06271869620815       -0.03085477937476
C           -2.21907191394203        2.15522079838987       -0.05001256521996
C           -1.81739470187490       -0.20012724136556       -0.04692818139228
O           -2.99983858926755       -0.37846413507442       -0.07008877579474
N           -0.92618577614240       -1.30210203518959       -0.03682761236648
C           -1.46982251276835       -2.64643077634382       -0.06029819901142
H            3.71247229913541        1.21471443890471        1.06488839270555
H            4.00791460421487        1.03430799217987       -0.67357688121503
H            2.69909982127087        2.09770098766290       -0.09130154035862
H            3.56654087521359       -1.63682977417947        0.04233139674524
H           -1.67107945562430        3.09322822573871       -0.02552706696334
H           -2.82428927394145        2.09428605349656       -0.95318074103337
H           -2.87644002486466        2.07745706351925        0.81450059976605
H           -1.17061985538665       -3.19584861009707        0.83242224714061
H           -1.14560246782873       -3.17511580834413       -0.95688266944647
H           -2.55549768731684       -2.55659960601237       -0.07459039105944
H            1.38130842369251       -2.94313824728853       -0.01389874052104
25
 energy: 0.271659731404 xtb: 6.6.1 (8d0f1dd)
C            3.24267591245296        1.18844511728734        0.09063701978143
N            2.30498080012136        0.10849232680292        0.02888538897795
C            2.59885120706853       -1.21647726631810        0.01231176022905
N            1.43136281547584       -1.92845561764108       -0.02415921381779
C            0.39507808205931       -1.05165227731733       -0.01674419428984
C            0.92745024101412        0.23146281301666        0.00307925836123
C            0.10556665737264        1.40899132834551       -0.01330034577060
O            0.50610501098301        2.57317789398348       -0.00717201341905
N           -1.25519630723707        1.06571942918125       -0.04244938518348
C           -2.20955137270166        2.17211341996605       -0.04980186336267
C           -1.81754972294835       -0.19110198766618       -0.06017724707885
O           -3.01528258304094       -0.36210037164791       -0.08280143706237
N           -0.93504783723536       -1.31126524551725       -0.02073878588240
C           -1.47180892190880       -2.67838947781316       -0.01104147942351
H            3.71756875905887        1.22407961562133        1.07461260109493
H            4.01430770476042        1.05804419204937       -0.66936459421437
H            2.70144470929366        2.11710690035980       -0.07852192628552
H            3.57769925851735       -1.63745363595366        0.02709179553323
H           -1.64852099568814        3.10508206357472       -0.02560241493727
H           -2.82357359476832        2.12849437638276       -0.94879322848175
H           -2.86170766954324        2.10495478782321        0.82048046527067
H           -1.30061842958289       -3.41900985048441        0.86917837147659
H           -1.08829018133032       -3.21939506747167       -0.86453947451633
H           -2.55473404305641       -2.55011080507875       -0.13696385295675
H            1.37100480583587       -2.93172387274088       -0.04707129184795
25
 energy: 16.714610368270 xtb: 6.6.1 (8d0f1dd)
C            3.24608705429863        1.20937466815196        0.09895574339000
N            2.30583710620460        0.13963886892241        0.01019965358352
C            2.61076427214073       -1.20956719784830       -0.01697217585958
N            1.42548690948900       -1.91199409708075       -0.06050047421895
C            0.39635455240350       -1.04557132300554       -0.03022917670931
C            0.91602090506734        0.24944561288713       -0.01417766810663
C            0.11895207366658        1.41020391996316       -0.02320473223364
O            0.50763311425414        2.59060242474402       -0.01211221270803
N           -1.26037548674311        1.06964207813033       -0.05490445905045
C           -2.19485242777673        2.19591834394488       -0.05019591332670
C           -1.81458443170728       -0.18366678402117       -0.06061037120129
O           -3.01956762193636       -0.34097603486896       -0.10413096210389
N           -0.94618258106338       -1.33281185228430        0.00813292190003
C           -1.48414207268104       -2.72126673978233        0.04114012630999
H            3.72111342184565        1.23136781273289        1.08576699739328
H            4.02257336009778        1.09099990821774       -0.66041708804573
H            2.70774777857547        2.14163956620381       -0.05807106048984
H            3.58453180859810       -1.62567581148441        0.00370236298162
H           -1.61481961663320        3.12067201047352       -0.02718068035610
H           -2.82164576864226        2.17647019594520       -0.94197477670318
H           -2.83837987425019        2.14465850040847        0.82863762915191
H           -1.47815023221174       -3.65981044710765        0.92401974075905
H           -0.99017409600443       -3.28853582519449       -0.74056830861901
H           -2.55570599121465       -2.54915318689580       -0.22519598937791
H            1.36769214919533       -2.91257582240779       -0.09307521416464
25
 energy: 34.352289503578 xtb: 6.6.1 (8d0f1dd)
C            3.24493005733424        1.22058111746112        0.10786504199282
N            2.30179844802896        0.15415128386069       -0.00953679604048
C            2.60953896577985       -1.20036112049146       -0.04774834383407
N            1.42213534409834       -1.89712306236992       -0.09199205415445
C            0.38863128435077       -1.04252630258093       -0.04397735949800
C            0.90643418085539        0.25928515357612       -0.02686384317803
C            0.12622664411796        1.41888193361075       -0.02951502262952
O            0.50690872548836        2.60202052406740       -0.01559955807805
N           -1.26466082255526        1.07927227331949       -0.06358375007494
C           -2.18146477213199        2.22072072683421       -0.05062094329198
C           -1.81738531196379       -0.17468577064927       -0.06108390057130
O           -3.02298670242359       -0.32115909175100       -0.12352508713143
N           -0.95969199490216       -1.34903949266140        0.02777530231759
C           -1.50009554351356       -2.75811514804758        0.07120699127544
H            3.71707409276269        1.22842053881851        1.09751739127065
H            4.02801048527100        1.11771251622929       -0.64799345363887
H            2.71377072295025        2.16040077952216       -0.03581362999861
H            3.58445277443670       -1.61284313994235       -0.02028138556727
H           -1.58162790486543        3.13487693391169       -0.02984810018219
H           -2.81603347853104        2.22141589746391       -0.93689702645112
H           -2.81643397400247        2.18386458756457        0.83526161389942
H           -1.60581089083046       -3.82684151991712        0.97671146438158
H           -0.89750824256210       -3.34830166160123       -0.62546282731579
H           -2.54421868719294       -2.58308427109127       -0.29326123812458
H            1.37022090497274       -2.89849489639236       -0.13569957318226
25
 energy: 49.980021624578 xtb: 6.6.1 (8d0f1dd)
C            3.24402401468013        1.22410185168877        0.11194062541466
N            2.29996294919648        0.15865310015326       -0.02447501584979
C            2.60437718937763       -1.19175809265104       -0.06661873939956
N            1.42230964901446       -1.88467436658426       -0.10699735337318
C            0.38165195607336       -1.03773156965299       -0.05490635403015
C            0.90284484920713        0.26608078359223       -0.03119929331566
C            0.13217680131167        1.43120831566693       -0.03231226554989
O            0.50944666487459        2.61055633252120       -0.01909968422349
N           -1.26598030328942        1.09204359620092       -0.06501523711297
C           -2.17559893654740        2.23759430263000       -0.05231005375656
C           -1.82035683486643       -0.16199652880687       -0.05814680396711
O           -3.02306522838183       -0.30482886430127       -0.13371365946543
N           -0.96651516677520       -1.35145182197973        0.03457685855761
C           -1.50893882680549       -2.77215598798582        0.07585005476023
H            3.71180231264346        1.22403863441251        1.10350486929507
H            4.03066143700742        1.12924981321552       -0.64085126152313
H            2.71701641590430        2.16788024601597       -0.02615084833996
H            3.58146636680637       -1.60298659884089       -0.02947844231600
H           -1.56728338354577        3.14609395295185       -0.03565962401470
H           -2.81213819137829        2.24496283573632       -0.93562844098510
H           -2.80547392995266        2.20852809281877        0.83669420977814
H           -1.68377436226106       -3.98496678945803        1.00452011279928
H           -0.85475764939384       -3.36431843667354       -0.54482253118135
H           -2.51668924595554       -2.60739289453820       -0.32539702125678
H            1.37504575802833       -2.88770111738762       -0.15727018874964
25
 energy: 68.756989430907 xtb: 6.6.1 (8d0f1dd)
C            3.24489073334194        1.22357136771447        0.11011378639621
N            2.30087104751253        0.15705187295347       -0.03856245560202
C            2.59327519376375       -1.17990976528269       -0.07995014071638
N            1.42448702769851       -1.86909463036281       -0.11382567576527
C            0.37311593710323       -1.02716276589791       -0.07254197953649
C            0.90383281511559        0.27554079635375       -0.03103235634616
C            0.14099115851781        1.45032507437669       -0.03509070789163
O            0.51628240935900        2.62068762850457       -0.02162408237251
N           -1.26310022434503        1.11259344419308       -0.06158066197521
C           -2.17404050131615        2.25271898019698       -0.04867140574569
C           -1.82267093859265       -0.13891337674002       -0.06406452820289
O           -3.01939920869466       -0.28376019402565       -0.14138774293311
N           -0.96742513371605       -1.33736496121655        0.01455424297627
C           -1.51763319968490       -2.75790992129887        0.06186891359442
H            3.70916089584053        1.22158958839430        1.10133697397939
H            4.03133966960183        1.13197779718383       -0.64150202874166
H            2.71955993690719        2.16899230339719       -0.02771425743478
H            3.57373898793461       -1.59237643466318       -0.03164356013600
H           -1.56694670025705        3.15998566071915       -0.03499602566643
H           -2.81122778131437        2.25816824996422       -0.92957360004791
H           -2.79937363741900        2.22146742509997        0.84172869031051
H           -1.78586168447082       -4.22135937825449        1.05609256778105
H           -0.79291085836279       -3.36984219656126       -0.43244661793199
H           -2.47882738348245       -2.61286074618658       -0.38237512559088
H            1.38008574393182       -2.87508702981766       -0.17007831020627
25
 energy: 80.048056271492 xtb: 6.6.1 (8d0f1dd)
C            3.24634658671116        1.22422948953269        0.10774028842926
N            2.30224000592200        0.15591036655952       -0.04322827769924
C            2.58464245562492       -1.16887879165280       -0.08328466770071
N            1.42633590490449       -1.85718761951615       -0.11810037939278
C            0.36793362910992       -1.01568241261144       -0.08594859589958
C            0.90703017963289        0.28500465470724       -0.03244820438512
C            0.14775402572809        1.46541081551294       -0.03933820360963
O            0.52176399737834        2.62888826968543       -0.02475855284556
N           -1.25776061427003        1.13014533428327       -0.06135040518451
C           -2.17246274082403        2.26461947816183       -0.04747026840692
C           -1.82097463297739       -0.12018778350298       -0.06831146005138
O           -3.01368862197360       -0.26663524564393       -0.14564940792980
N           -0.96282780365727       -1.31875128413713       -0.00509557672266
C           -1.51825777158564       -2.73067682223286        0.05030711240986
H            3.70794042246239        1.22241085811561        1.09855736579539
H            4.03248132807713        1.13338103964977       -0.64321136432776
H            2.72139059837405        2.17041172126723       -0.03089957963451
H            3.56764511762880       -1.58248400599888       -0.03219499419416
H           -1.57001024075323        3.17365038599019       -0.03568831876772
H           -2.81126499310718        2.26479866150754       -0.92658267953239
H           -2.79562914940416        2.22857081825833        0.84374097155491
H           -1.85955370117811       -4.45753642380380        1.09324728230562
H           -0.76673557362067       -3.36476719214071       -0.34747524507728
H           -2.45368941514640       -2.61024044594803       -0.41833727930583
H            1.38156531191595       -2.86537507729883       -0.17718564763294
25
 energy: 83.624713000386 xtb: 6.6.1 (8d0f1dd)
C            3.24674907845222        1.22273419088474        0.10383627345280
N            2.30558990853982        0.14196484720562       -0.02821879313714
C            2.56985008007662       -1.15345632239737       -0.06833871451766
N            1.43198913243848       -1.85273653862847       -0.11668330385184
C            0.36216258133359       -0.99727134320846       -0.10220292966072
C            0.92111840947378        0.29254388828786       -0.03383592722632
C            0.14648571335093        1.47867462410700       -0.04577846214842
O            0.52468076344956        2.62951920489876       -0.02567630022508
N           -1.24384987314723        1.14887754734450       -0.06413438757669
C           -2.17181992551073        2.27038765550645       -0.04687042271241
C           -1.81761743438589       -0.10059297651284       -0.08438736535924
O           -3.00492864090805       -0.25706222334149       -0.14315204652548
N           -0.94112640124662       -1.26303769600691       -0.07040737477303
C           -1.50043118944150       -2.61668292825653        0.00233679748314
H            3.70595374365355        1.22539050990747        1.09274386669410
H            4.03082194375602        1.13056554475992       -0.64763316364640
H            2.71774776351386        2.16755227899461       -0.03655689445390
H            3.55860738856222       -1.57237592349113       -0.03436681188352
H           -1.58079025820578        3.18501975414571       -0.03457117316341
H           -2.81307797879621        2.25596715085272       -0.92633421642145
H           -2.79781222429367        2.22085425784554        0.84287182310353
H           -1.87909339563881       -4.77486048096938        1.16038710107631
H           -0.79466619128335       -3.34023085669588       -0.25444852113175
H           -2.44211487507903       -2.58906060827812       -0.43530093054206
H            1.37778618630865       -2.86365476821031       -0.17624421065877
25
 energy: 82.776264755547 xtb: 6.6.1 (8d0f1dd)
C            3.24720135881199        1.22098183516873        0.09895207982410
N            2.30869407666362        0.12523675788997       -0.00082229434996
C            2.56114367331751       -1.14443270050023       -0.04641354211080
N            1.44130436697710       -1.86667710738172       -0.11472236525993
C            0.35969461276154       -0.98585623488721       -0.10980386069233
C            0.93803946161239        0.29462557843477       -0.03537137262263
C            0.13122975976892        1.47633355442637       -0.04318845002717
O            0.52574929104218        2.62505184092738       -0.01802277757344
N           -1.22921917544631        1.15076630605548       -0.06553369451980
C           -2.17219125605279        2.26393225481478       -0.04304656735685
C           -1.81987663624085       -0.09786104291171       -0.10799033770285
O           -3.00889305621547       -0.26032401420769       -0.13236075552992
N           -0.92515960347702       -1.20579063265006       -0.15910667557254
C           -1.47715374406022       -2.44215091572815       -0.09325975874994
H            3.70699309466162        1.22683097223780        1.08653833104229
H            4.02724533882219        1.12175851973562       -0.65456486570611
H            2.71053153575106        2.16071339750812       -0.04347998441593
H            3.55400880402793       -1.57294169542938       -0.03508759330030
H           -1.59439952011578        3.18585995128540       -0.02759167814182
H           -2.81533690286792        2.23662068558513       -0.92542946781248
H           -2.80609260521056        2.20197588252835        0.84310221413438
H           -1.80517787593359       -4.94172211810320        1.26015155557469
H           -0.82375574902492       -3.34412025303968       -0.20583767850794
H           -2.49432101160782       -2.56436012599627       -0.43587119616753
H            1.37195606700766       -2.87542190701864       -0.16420535226063
25
 energy: 81.798941911215 xtb: 6.6.1 (8d0f1dd)
C            3.25013985519603        1.22627370673584        0.10320543834023
N            2.31101041522494        0.13242290395883        0.01380888124526
C            2.57170726536463       -1.14594344014276       -0.03219898921680
N            1.45086421619600       -1.87447566562094       -0.11366310275398
C            0.37057683922125       -0.98644318412691       -0.11224165579795
C            0.94249735960390        0.30150316408931       -0.03917790221375
C            0.12850351069949        1.47212012689352       -0.04293801154605
O            0.53146065480011        2.63091035523161       -0.01627892243338
N           -1.22631681185829        1.14596264087842       -0.07575465752829
C           -2.17400732140675        2.25917861723401       -0.05226038558576
C           -1.81623586611238       -0.10320835149651       -0.11643395365215
O           -3.01067576675723       -0.25768739407702       -0.12981624637730
N           -0.92976597325596       -1.21649575476766       -0.17586337633070
C           -1.47487581114435       -2.42212480805936       -0.13494691452501
H            3.71131316560365        1.23760581103967        1.09121170826981
H            4.02803005849167        1.11857715762923       -0.65131571380639
H            2.70759638197629        2.16029808753136       -0.04587991425041
H            3.56101214311329       -1.57615156130684       -0.01497259814570
H           -1.60416262864247        3.18624095837565       -0.03477630650691
H           -2.81452320667541        2.22631203752362       -0.93619644910802
H           -2.81101881547278        2.19199823098925        0.83141190829010
H           -1.70262745847586       -5.02818063058369        1.27682991740503
H           -0.93917318125891       -3.28401078795405       -0.28877037866815
H           -2.52483167098282       -2.52610724240931       -0.32929380324103
H            1.37571695152439       -2.87954618882124       -0.14665465966816
25
 energy: 78.981778447867 xtb: 6.6.1 (8d0f1dd)
C            3.25462224249229        1.22884953099529        0.10534520202923
N            2.31110460173313        0.14840443428950        0.01197293783024
C            2.58147459389881       -1.15120630069268       -0.03342968672343
N            1.45124301532538       -1.86976497480965       -0.12078281848730
C            0.37970850107502       -0.98010670379978       -0.12976138026188
C            0.93942513630733        0.31791074976951       -0.04540606617779
C            0.13747299927067        1.48173852903138       -0.03952518041064
O            0.54516600826368        2.65065697088346       -0.00454017920040
N           -1.22962790334882        1.15847863120585       -0.08403269773327
C           -2.18058582508933        2.26677910963028       -0.04663809830990
C           -1.81150348675983       -0.08595149997344       -0.13839053532489
O           -3.01095983028860       -0.23231559072711       -0.13992248354749
N           -0.94532026876773       -1.23384137229529       -0.20182388224550
C           -1.50157332837350       -2.45682071199561       -0.17744119330611
H            3.71894648860602        1.24189730661598        1.09282746594749
H            4.02805159687744        1.11492443406225       -0.65280624379115
H            2.70871709472885        2.15947748405530       -0.04704578201538
H            3.56406608858456       -1.58079598086802       -0.00270646049248
H           -1.61561555424521        3.19577224097621       -0.02375073398390
H           -2.81780971105715        2.23226100967926       -0.92945077720032
H           -2.81263868677186        2.18515378982335        0.83758785606782
H           -1.69284936214899       -5.08921502425089        1.32636035171955
H           -0.91436363506120       -3.35663263720224       -0.27893732694325
H           -2.54915147000805       -2.48392703780726       -0.30666470085296
H            1.37421499972954       -2.87269759785166       -0.14400367439172
25
 energy: 78.310648324860 xtb: 6.6.1 (8d0f1dd)
C            3.25169986411397        1.22444709151144        0.10416922689576
N            2.30572392861529        0.14736338618947        0.01204913030744
C            2.58017810567506       -1.15730501972689       -0.03369277969950
N            1.44506195298120       -1.87158750167814       -0.11523872756763
C            0.38042511300190       -0.98225532029451       -0.11127970226716
C            0.93365654435493        0.31516870476223       -0.04131104259978
C            0.13262164382833        1.47540259872869       -0.03501495961488
O            0.54141989480727        2.64580712620960       -0.01398186624628
N           -1.23534508233559        1.15410110095700       -0.07847616595320
C           -2.18145163129345        2.26448705887469       -0.04852528335661
C           -1.81105441708336       -0.08687127292926       -0.12431843373949
O           -3.01230047575227       -0.24075307853278       -0.12808991532849
N           -0.94785796426521       -1.23860474560162       -0.18596113028131
C           -1.50366144469014       -2.46333811373036       -0.21809304782114
H            3.71791615616338        1.23610483690257        1.09113374146034
H            4.02613132535751        1.11411744546116       -0.65414272861012
H            2.70861671458094        2.15828181338928       -0.04308302427145
H            3.56143131498086       -1.58455652872133       -0.01080558281777
H           -1.60491567748283        3.18691752211911       -0.03018951934991
H           -2.81834697442081        2.22985375258106       -0.93148258043005
H           -2.81229621585364        2.19219239533027        0.83707405686672
H           -1.64205310111602       -5.02027472621351        1.36847659838023
H           -0.88763301737482       -3.34700576764681       -0.32367194680557
H           -2.58373163443308       -2.48793412977050       -0.31911071636343
H            1.36797938261305       -2.87472983942688       -0.13939968859210
25
 energy: 78.168681332593 xtb: 6.6.1 (8d0f1dd)
C            3.24996384982084        1.22204552122727        0.10569308421804
N            2.30336721129112        0.14402777311828        0.00834339588069
C            2.57618149722240       -1.15621738046611       -0.03576885854518
N            1.44222738697077       -1.86755308578895       -0.11981809978229
C            0.37781049144341       -0.98432180089702       -0.11285773858523
C            0.93041557592374        0.31150312904163       -0.04493501998316
C            0.13278105488428        1.47414928358819       -0.03765936016245
O            0.53819808174938        2.64150114745176       -0.01513467933722
N           -1.23727787806510        1.15446700083572       -0.07952447000726
C           -2.17989010116120        2.26628044592177       -0.04878092064295
C           -1.80974182602528       -0.08390738038022       -0.12423487696504
O           -3.00976074985532       -0.24666521991719       -0.13153275470272
N           -0.94536877001903       -1.23721256062886       -0.18237210048751
C           -1.50750465276275       -2.45505410674577       -0.25160447097537
H            3.71417094982669        1.23427707735155        1.09340216313485
H            4.02820707888328        1.11719718079090       -0.64958252525986
H            2.71107703070447        2.15969405980418       -0.04044469656467
H            3.56012046652590       -1.57950253230120       -0.01257494229834
H           -1.59987424727653        3.18659036778202       -0.02933731867396
H           -2.81783255354552        2.23652032376337       -0.93125573748013
H           -2.81030805694347        2.19561016639503        0.83689468421272
H           -1.62665966599782       -5.04782383802010        1.43017715453741
H           -0.88812412766865       -3.33874776636300       -0.32364800504285
H           -2.58968363661277       -2.48477407316618       -0.32975933930185
H            1.36971989565958       -2.87305494365308       -0.14665065499112
25
 energy: 77.825218595414 xtb: 6.6.1 (8d0f1dd)
C            3.24966798459396        1.22028943784208        0.10499318654082
N            2.30452180495179        0.14041879656018        0.00713951647911
C            2.57389490038785       -1.15624237856967       -0.03478709789022
N            1.44003289260345       -1.86486063317542       -0.11817752955535
C            0.37457339443653       -0.98870424459863       -0.11594262675099
C            0.92905245103589        0.30644296356347       -0.04270361848183
C            0.13697152876280        1.47462564669951       -0.03737154689295
O            0.53640036047104        2.63860777066805       -0.00993388458489
N           -1.23772985523299        1.15457576975285       -0.07657283879575
C           -2.17965199872876        2.26587601680046       -0.04684412962092
C           -1.81012243680183       -0.08132692044734       -0.12463837919863
O           -3.00833151272280       -0.25037375859819       -0.13598479516661
N           -0.94243305594408       -1.23620386420638       -0.17972431122551
C           -1.51185633100702       -2.45648706785908       -0.28693127331990
H            3.71495450862043        1.23463739066686        1.09199457699835
H            4.02703155297524        1.11625040660739       -0.65130023735879
H            2.71165804804077        2.15890060479564       -0.04268106576553
H            3.56074248978347       -1.57672799494841       -0.01225572459024
H           -1.60328874876469        3.18835206093215       -0.02690381862912
H           -2.81698352717625        2.23666547076882       -0.92987011203223
H           -2.81175946918954        2.19438125433309        0.83761389984632
H           -1.61782761418813       -5.03172964379960        1.48474600495452
H           -0.90156558079384       -3.33890032243866       -0.33074170952825
H           -2.58063957411796       -2.48674197007332       -0.34760223897140
H            1.37490209297704       -2.87269600253186       -0.14848633426544
25
 energy: 77.809013094584 xtb: 6.6.1 (8d0f1dd)
C            3.25008222229272        1.22113145784323        0.10606756871955
N            2.30594389918945        0.14047204019318        0.00847562312901
C            2.57347386383795       -1.15619377185812       -0.03505512124440
N            1.44040050469592       -1.86572314750444       -0.11832808076972
C            0.37323209857690       -0.98869468345274       -0.11924631604482
C            0.92999992604938        0.30724551924990       -0.04087944227969
C            0.13867024201067        1.47614757087008       -0.03844390641939
O            0.53645540532166        2.64035594781789       -0.01204038935757
N           -1.23701770488673        1.15494618695298       -0.07543162229885
C           -2.17944730912583        2.26619510638123       -0.04693167145929
C           -1.81298220735747       -0.08057082255530       -0.12434400747780
O           -3.01047631069716       -0.24719226394507       -0.13317948518506
N           -0.94363408132755       -1.23453660762575       -0.18434952460496
C           -1.51162129179617       -2.45135731913342       -0.29958528229505
H            3.71490333372336        1.23425248893444        1.09322418127660
H            4.02675119104600        1.11564675417164       -0.65076387837373
H            2.71077557908927        2.15847220049062       -0.04180828813357
H            3.56004332377142       -1.57830869132385       -0.01252100770103
H           -1.60408670886208        3.18938163958881       -0.02811873322699
H           -2.81714614463703        2.23507937755841       -0.92999724087617
H           -2.81159867441390        2.19507512655511        0.83788368720248
H           -1.61524975440041       -5.04023206529125        1.49174491046536
H           -0.90394630832340       -3.33827116223956       -0.32416835919203
H           -2.57744294577965       -2.49108117366665       -0.34560822178622
H            1.37613215697510       -2.87321091926739       -0.14956147987215
25
 energy: 77.750654449845 xtb: 6.6.1 (8d0f1dd)
C            3.25059469140068        1.22229965099167        0.10543387863825
N            2.30729397614005        0.14125213878377        0.00864371153664
C            2.57407540747927       -1.15645139912949       -0.03528176462459
N            1.44128408902660       -1.86704641951917       -0.11689335946649
C            0.37288523561773       -0.98888912276729       -0.11928989035668
C            0.93079290128886        0.30794676864411       -0.03825336966446
C            0.14022777390908        1.47665504248031       -0.03838958854223
O            0.53597673411683        2.64177298810552       -0.01298246423231
N           -1.23667758188990        1.15392930176005       -0.07462983132529
C           -2.17944127433924        2.26565918763341       -0.04669411163589
C           -1.81529036934528       -0.08173351810572       -0.12447970315076
O           -3.01181862813286       -0.24593496217872       -0.13266625051526
N           -0.94478914151254       -1.23496618765333       -0.18406442543853
C           -1.51237221752476       -2.45117762423823       -0.31039549156391
H            3.71500686304289        1.23503722864794        1.09265231552795
H            4.02721785221665        1.11519319556714       -0.65125736434639
H            2.71052643334344        2.15833752756711       -0.04333254257183
H            3.55989127701386       -1.58008256310077       -0.01171942578994
H           -1.60455018617555        3.18913307749227       -0.02711753273645
H           -2.81693940239833        2.23473845559756       -0.93012108524652
H           -2.81195181976700        2.19417299343405        0.83797184996997
H           -1.61823803518616       -5.03876487741821        1.48946901817777
H           -0.90342407630625       -3.33538700959142       -0.31674594029468
H           -2.57544976927578       -2.49284981057427       -0.34345724700176
H            1.37738357223013       -2.87381527368430       -0.14936547315205
25
 energy: 77.645194487670 xtb: 6.6.1 (8d0f1dd)
C            3.25066547682935        1.22280647972958        0.10621986115894
N            2.30770151819574        0.14164715097958        0.00836789615092
C            2.57444347834478       -1.15641435794575       -0.03640246302835
N            1.44198096278271       -1.86827149502533       -0.11721833575464
C            0.37293675997353       -0.98853737967311       -0.12025714974016
C            0.93121240398336        0.30836367840838       -0.03733207595379
C            0.14071470113136        1.47644070364359       -0.03873159876648
O            0.53545987745807        2.64223697435038       -0.01288755649924
N           -1.23645140404783        1.15284682576413       -0.07471427958416
C           -2.17945308216465        2.26531066764532       -0.04658823455768
C           -1.81643517940242       -0.08350296439826       -0.12597228659297
O           -3.01237100158369       -0.24582190501063       -0.13283604260475
N           -0.94509743900127       -1.23526805280731       -0.18592165443619
C           -1.51056011841415       -2.45127712960278       -0.32241169952981
H            3.71461339701442        1.23449205462337        1.09369969806831
H            4.02777390378814        1.11547821756357       -0.65000356831101
H            2.71048782909182        2.15834856198063       -0.04221967117544
H            3.55956318081088       -1.58123290743762       -0.01168070385209
H           -1.60465281533011        3.18881946101696       -0.02664427689229
H           -2.81680673067213        2.23478850310232       -0.93016396152703
H           -2.81212808027343        2.19364992975488        0.83801472014820
H           -1.61806293985226       -5.02916720924403        1.48269361249961
H           -0.90549659674028       -3.33768485425439       -0.30387679857249
H           -2.57508488036002       -2.49474350387927       -0.33476964296315
H            1.37726108341050       -2.87427866054019       -0.15132987548972
25
 energy: 77.593226529610 xtb: 6.6.1 (8d0f1dd)
C            3.25041388775427        1.22232324218712        0.10532176184736
N            2.30704062203427        0.14158773464306        0.00794171987066
C            2.57447483967535       -1.15614920757083       -0.03606000956847
N            1.44192009151593       -1.86787302398622       -0.11592770466816
C            0.37326387543704       -0.98807717087463       -0.11807227379624
C            0.93081025932826        0.30825243772927       -0.03689418268975
C            0.14036591180767        1.47625298754199       -0.03801850285438
O            0.53550914317659        2.64186309455737       -0.01273119595121
N           -1.23664766932338        1.15295379580236       -0.07409153493297
C           -2.17961865503836        2.26537591126736       -0.04657178466896
C           -1.81548502522628       -0.08400616378426       -0.12409078009548
O           -3.01168864456982       -0.24600939650790       -0.13198736705051
N           -0.94471793111020       -1.23619075255148       -0.18316176391381
C           -1.50889849947992       -2.45349541183335       -0.32972644288245
H            3.71514291411123        1.23474667143412        1.09245116290677
H            4.02721275814257        1.11519214155189       -0.65121473760478
H            2.71056607267670        2.15824426548127       -0.04302729034426
H            3.55960965721502       -1.58068757797095       -0.01168707630807
H           -1.60443714789087        3.18862500142415       -0.02750062478602
H           -2.81684723959583        2.23428685757914       -0.92992192718570
H           -2.81189676493885        2.19434106281228        0.83821546093575
H           -1.62346659602169       -5.02826418940991        1.47289943723972
H           -0.90186701050275       -3.33628260206021       -0.29270834239029
H           -2.57470592790636       -2.49411557974679       -0.33591816246160
H            1.37616138370185       -2.87386533897083       -0.15048392645260
25
 energy: 77.564730167818 xtb: 6.6.1 (8d0f1dd)
C            3.25018737383973        1.22181608986374        0.10570815721473
N            2.30639859906311        0.14116244713530        0.00789586131397
C            2.57446053062537       -1.15599357734168       -0.03587385660726
N            1.44174213416113       -1.86732944662875       -0.11691803085829
C            0.37371578429163       -0.98812711453523       -0.11839061238576
C            0.93053969806412        0.30760174532392       -0.03869773420485
C            0.13924327927288        1.47576589420619       -0.03821725702623
O            0.53562889387628        2.64085480362547       -0.01189555892442
N           -1.23679357501868        1.15314118620290       -0.07529044649876
C           -2.17968867351140        2.26522192624372       -0.04626784798756
C           -1.81392251839797       -0.08408069496558       -0.12558789655378
O           -3.01079259370132       -0.24721091288626       -0.13311291666050
N           -0.94388746695921       -1.23646881350501       -0.18421968871998
C           -1.50755449047153       -2.45393222728820       -0.33019008339788
H            3.71472785435654        1.23456911312696        1.09298506627719
H            4.02734410033142        1.11563817392022       -0.65059721792245
H            2.71082224995141        2.15846940528110       -0.04247997838155
H            3.56002318530776       -1.57970866449981       -0.01208272320810
H           -1.60415400983666        3.18823831665788       -0.02622662322760
H           -2.81699919305697        2.23517069507025       -0.92957914282644
H           -2.81182676030993        2.19344029544619        0.83844741866133
H           -1.62338484799134       -5.02472979043191        1.47161709463833
H           -0.90387054162086       -3.33835216632719       -0.28733900506655
H           -2.57526935772594       -2.49242810374261       -0.33547921732770
H            1.37552465043284       -2.87369979120761       -0.15117384812528
25
 energy: 77.575972794969 xtb: 6.6.1 (8d0f1dd)
C            3.25015130954258        1.22154211949367        0.10570833197508
N            2.30601589591491        0.14106177541976        0.00833258308144
C            2.57426340080296       -1.15609170808145       -0.03563566388833
N            1.44126622602118       -1.86675358640378       -0.11745844419086
C            0.37377009481193       -0.98823052728434       -0.11799518511189
C            0.93030883526440        0.30740097844774       -0.03929722808560
C            0.13848313129104        1.47578583383980       -0.03756929345333
O            0.53608338301202        2.64050107483504       -0.01149565849771
N           -1.23689616499699        1.15372055694875       -0.07512985017350
C           -2.17963315538606        2.26545076600416       -0.04644872634955
C           -1.81309974342491       -0.08338382865117       -0.12457231743446
O           -3.01045952371227       -0.24732456858162       -0.13250246115899
N           -0.94382888316046       -1.23648717914939       -0.18418049158905
C           -1.50731620341937       -2.45427602889443       -0.32914911379396
H            3.71512876188134        1.23428325052843        1.09278830589090
H            4.02686459654260        1.11566676817248       -0.65105654864188
H            2.71084098573879        2.15856836464974       -0.04206785943659
H            3.56010293068791       -1.57922004634530       -0.01266987905774
H           -1.60415901399362        3.18857213789144       -0.02722635077232
H           -2.81705496716229        2.23481319797119       -0.92960876109194
H           -2.81179683805701        2.19429628473481        0.83828713080519
H           -1.62266784051184       -5.02630021264067        1.47208083549380
H           -0.90389944361034       -3.33856038613058       -0.28635576717788
H           -2.57549178058907       -2.49253147257750       -0.33877936447217
H            1.37523831148500       -2.87347477545280       -0.15096431067410
