72
 energy: -99.683887697575 xtb: 6.6.1 (8d0f1dd)
N           -1.07015275784449        2.77858346344060        2.39552733311161
C           -1.34244062159157        2.17314779288826        1.30697941403865
C           -2.65787765118810        2.09709281483761        0.41761392513708
C           -3.28438801054367        0.69195840149590        0.41205791623358
C           -4.26575443491461        0.28712912758043       -0.51563474845814
C           -4.80858706626775       -0.98883554741947       -0.49530236781675
O           -5.75783715986958       -1.47818198332913       -1.34962023310658
C           -6.37029337439026       -0.62870156580007       -2.28473860934459
C           -4.37273624375704       -1.92294856211817        0.47309002760602
O           -4.95519755895653       -3.15589679468785        0.41624030824982
C           -4.62787573747638       -4.09893479211384        1.40540333464832
C           -3.41631800427538       -1.52470171280643        1.38539082009151
C           -2.89271413193689       -0.23666302311976        1.35409924990874
C           -2.07319913876982        2.40179990648735       -0.98669728013385
C           -1.25866828737651        1.24324093748152       -1.58524482762313
C            0.08048432056795        1.09850887924273       -0.97825329976773
N            0.61489144700078       -0.08524646171117       -0.50640019947668
C            2.00420651312745       -0.12071547715705       -0.16822526105253
C            2.92791798792531       -0.59212439852388       -1.31605359170087
C            4.35642012239265       -0.47892690963530       -0.88450156043360
C            5.05983311225861        0.69722243619735       -1.07060030616161
C            6.36630040446296        0.82440907178559       -0.62116706922502
C            6.98817268637076       -0.22511058098231        0.03133514211034
O            8.26564521394634       -0.21894099230666        0.50994555204427
C            9.04809696326178        0.93077935557743        0.32072903600876
C            6.27532419556599       -1.42770586535625        0.23909167519664
O            6.96947315891869       -2.40263447717342        0.89229897709351
C            6.33894028960867       -3.63180469206654        1.13963486724661
C            4.97533241323092       -1.53633473369867       -0.21574449460913
C           -0.06754442077108       -1.33565659526605       -0.69165538867037
C           -3.92660552540613        3.06316728219303        0.56155736323342
C           -4.80319823431171        2.80663584372125        1.78933441906705
C           -3.60186656292007        4.55229160882111        0.46216972950345
H           -4.62243951911879        0.96612223895499       -1.27601439216760
H           -6.86356037321281        0.21910088748079       -1.79822137056818
H           -7.12402719971951       -1.23758000003149       -2.78587514832370
H           -5.65850962342438       -0.25993548528677       -3.03122728296367
H           -4.85100594997955       -3.72577029673189        2.41067944973054
H           -5.25051152638297       -4.96933875050855        1.20116290590231
H           -3.57370467958563       -4.39328820345389        1.35474770466808
H           -3.05911418050297       -2.20977744908510        2.13698390645353
H           -2.16024287815207        0.05259292079454        2.09010060109113
H           -2.87518470192540        2.65274174397157       -1.68519186999290
H           -1.43271048398406        3.28063516696944       -0.89396286849672
H           -1.83708254174673        0.32403554841266       -1.50119152075251
H           -1.14588960233292        1.46371270482696       -2.65656611390975
H           -0.37232393653009        1.75061449898061        0.90340802594000
H            0.70146592705281        1.97117709421391       -0.88985372878097
H            2.13568669487110       -0.78411220504445        0.69319846792049
H            2.31454553800570        0.88483017211476        0.12688406145473
H            2.73960573001812        0.03924862566735       -2.18607498558745
H            2.68161014642572       -1.62316388510100       -1.57348728414845
H            4.59255241727627        1.52787050809814       -1.57849735987679
H            6.88987600424302        1.75220706005757       -0.78966203161757
H            8.62423461833143        1.80084641230024        0.83407053526338
H            9.17677518923647        1.16442443276370       -0.74177527735314
H           10.01801853815676        0.69525059259691        0.75621008669071
H            7.08294103586537       -4.24117476357636        1.65091479046417
H            5.46220485020863       -3.51612325628495        1.78640079170768
H            6.04096897941510       -4.13060302108008        0.21097134647025
H            4.42027783964781       -2.44968174281559       -0.06591605297111
H           -0.19013574223230       -1.60501348707854       -1.74813469726423
H           -1.05576945950726       -1.28745405600432       -0.22791548410970
H            0.50680849964346       -2.11672360585740       -0.19620189548231
H           -4.56782076540398        2.83589740546434       -0.30769307498542
H           -4.25095064730248        3.02399692709555        2.69507334759252
H           -5.15541742591607        1.77690570153864        1.81506853521307
H           -5.68972787681989        3.44795800147886        1.75998237372768
H           -2.87553966239772        4.81987105536969        1.21973298022655
H           -3.21821377117665        4.81336709924479       -0.52178904705211
H           -4.50395974172542        5.14557824984567        0.62066827961366
H           -0.04870047530853        2.66004653471760        2.55345389659522
