25
 energy: -42.175318990679 gnorm: 0.008237004739 xtb: 6.6.1 (8d0f1dd)
C            3.27102862387669        1.14877385692564       -0.01469606998491
N            2.41662833526339        0.15318739944410        0.00530601713204
C            2.57295796229057       -1.08724566475248        0.51692647716436
N            1.41427972599810       -1.80050540000448        0.39434007886846
C            0.47768230343540       -1.07331473102717       -0.22647683217835
C            1.07103206837174        0.24508259970106       -0.54688947099403
C            0.17447003182722        1.34435309305139        0.10966518659708
O            0.63759039027019        2.32154795668372        0.62432317820221
N           -1.15276705407602        1.05891331432084       -0.02473037618987
C           -2.11448453810425        2.12568292759746        0.25138734141339
C           -1.72300092669466       -0.17544235119914       -0.34782696405172
O           -2.89323446277816       -0.31175600099907       -0.56377757607224
N           -0.84973514088126       -1.27883884981274       -0.30675074268895
C           -1.42394281752795       -2.61061247730958       -0.22797564648594
H            4.23675383700708        1.02125650279595        0.43779057602958
H            1.08665701999721        0.50800545376682       -1.61294919222593
H            2.98702911045798        2.09046736238696       -0.43958530050396
H            3.47249853016007       -1.46222905339158        0.95452109978319
H           -1.57814871205231        3.06878439110377        0.30660165202768
H           -2.85058924748523        2.14980675030115       -0.55072789802778
H           -2.62724172016632        1.93809934089562        1.19384927637585
H           -1.38338031025329       -2.99204594856371        0.79379142153271
H           -0.89708575787023       -3.28477868807213       -0.90120213071496
H           -2.46704539134798       -2.53577484787014       -0.53276673460076
H            1.30247965438124       -2.74317839437255        0.73902424749156
