  25
        -42.13238287
 C          3.2511151385        1.1155067117        0.0184897800
 N          2.2600885984        0.0772319727        0.0000784256
 C          2.4783071520       -1.2594717269       -0.0075855898
 N          1.3685374083       -1.9627630773       -0.0075527377
 C          0.3672518055       -1.0566986897        0.0020971235
 C          0.9084395399        0.2400419514        0.0078613705
 C          0.0735724124        1.4170485677       -0.0018676274
 O          0.4630046093        2.5630173491       -0.0163418668
 N         -1.2810164042        1.0833533653        0.0029296606
 C         -2.2439744288        2.1701678708       -0.0033963000
 C         -1.8371833063       -0.1903328991        0.0057702872
 O         -3.0293255100       -0.3538375247        0.0085541503
 N         -0.9592328295       -1.2794679480        0.0040207976
 C         -1.4872949953       -2.6218120161       -0.0036940580
 H          3.7517986457        1.1433394225        0.9887831923
 H          4.0000063133        0.9337047881       -0.7530913264
 H          2.7662647780        2.0760847549       -0.1560126221
 H          3.4585053232       -1.6947790167       -0.0133347629
 H         -1.7007179602        3.1126214407        0.0031068075
 H         -2.8755607752        2.1023150353       -0.8909285757
 H         -2.8911807506        2.0975975945        0.8723507077
 H         -1.1267176567       -3.1643094359        0.8714211152
 H         -1.1499849194       -3.1458333371       -0.8992744165
 H         -2.5749558774       -2.5672529402        0.0102534667
 H          1.7891862593       -4.8222652818       -0.1129938399
