72
 energy: -99.334873506674 gnorm: 0.009684377864 xtb: 6.6.1 (8d0f1dd)
N           -0.78703140558294        1.75004373603925        0.65270132592571
C           -2.04057109882188        1.94261714744104        1.03527710052621
C           -3.18571389719655        1.91071833392993        0.08856713202096
C           -3.83065545855067        0.54852354817988        0.30317375946219
C           -4.45222407480925       -0.15917478737670       -0.65204050360730
C           -5.04591900365590       -1.46255478821887       -0.49647770942150
O           -6.07664220951184       -1.85990761992372       -1.28098135961215
C           -6.75647145922287       -0.91474573487641       -2.07155540167866
C           -4.60626538002680       -2.41801228405890        0.40336581124751
O           -5.30582853477225       -3.57850390799087        0.45124720917658
C           -4.82097593607548       -4.64039102271708        1.23731096760588
C           -3.45407996501074       -2.24317422411530        1.18809310429123
C           -2.50399727827508       -2.33033455976259        1.93138335647966
C           -2.64300381859975        2.08539476628111       -1.33823799199746
C           -1.52049493787270        1.09206519489240       -1.60286914874404
C           -0.32443038767229        1.39830727588075       -0.70410250086881
N            0.60466372265512        0.32080769326969       -0.66075307431476
C            1.98418459033397        0.59939290276007       -0.32724870790920
C            2.92383495985934       -0.13533059575906       -1.30075039398197
C            4.35389828858309        0.00251906630855       -0.86949621099223
C            5.06542477063483        1.16491352671612       -1.12500463010405
C            6.37918629488911        1.30062082497687       -0.70568954027084
C            7.01229556506977        0.27348588830579       -0.01939080563995
O            8.28382660544194        0.29296133189662        0.42610593817643
C            9.08277080051777        1.42382077503669        0.16801325122155
C            6.29093248086726       -0.92116538206152        0.25094872020777
O            6.97876948744441       -1.87223644411389        0.91641661780651
C            6.35976716886012       -3.10829516150340        1.18056457982671
C            4.97597371758604       -1.03016389531346       -0.17361091809543
C            0.10034646732130       -0.96809242331057       -0.22760176860854
C           -4.22049789848275        3.04090415701534        0.40450571394342
C           -5.01457980699010        2.78366310748703        1.68241499568561
C           -3.55280300421699        4.41383502119475        0.48721991210718
H           -4.57170687373178        0.26993738520992       -1.63735053625934
H           -6.98403867156034       -0.00542811043664       -1.50814081480041
H           -7.68408092895675       -1.39884382699265       -2.37192387117008
H           -6.18599392324597       -0.65730935924013       -2.97019284128828
H           -4.76005385377671       -4.36438499153541        2.29447446141925
H           -5.54136255681194       -5.44719000070181        1.10972822221032
H           -3.83425306321087       -4.97120350157814        0.89980100899565
H           -3.76733966990434        0.15832221899752        1.30750217263815
H           -1.63610497686105       -2.30895372133479        2.52630212696437
H           -3.44090799485857        1.96047470330991       -2.06679306333256
H           -2.25541995683647        3.09722753426352       -1.44978019510123
H           -1.87807558860895        0.08129603573380       -1.41465827708652
H           -1.19063492371285        1.15007454461741       -2.63925673867069
H           -2.22777618289765        2.06426998108942        2.08997062818724
H            0.20388063703082        2.28110471239621       -1.09291027444409
H            2.22427352293893        0.28815108192891        0.70070531177585
H            2.16802612528975        1.67288031942425       -0.40286963620385
H            2.78437815901423        0.28417674488315       -2.29750408162974
H            2.64336942712936       -1.18769461645551       -1.33312418626364
H            4.59872475866502        1.97291507232923       -1.66746022068755
H            6.90799023895427        2.21366623022737       -0.92523967345179
H            8.67438478085358        2.32038464472008        0.64454408704352
H            9.19315477241931        1.59904844198826       -0.90633307428930
H           10.05628209059810        1.19802390400630        0.59893442916853
H            7.11281203685436       -3.71080657284748        1.68476817383517
H            5.49200404380307       -2.99086892678399        1.83785705802512
H            6.05370556146823       -3.60949429847687        0.25698856477526
H            4.42080918786232       -1.93439887119910        0.02155364310177
H           -0.14259558110825       -1.59539499940210       -1.08836913660103
H           -0.79830089621250       -0.86718363541220        0.38676008886465
H            0.85789238212064       -1.48245071175862        0.36123963197551
H           -4.92583732140091        3.04643449751244       -0.43255891358442
H           -4.37147268425444        2.77556789899012        2.55825989024255
H           -5.55076604651029        1.84021279719139        1.63174066502273
H           -5.74405566712756        3.57899385368920        1.81531009314871
H           -2.77796943656250        4.42407241497420        1.25017685956008
H           -3.11198729238813        4.71263606072241       -0.45905610409854
H           -4.29675069284756        5.16148148103911        0.74985763798199
H           -0.06137671100265        1.74188164043609        1.35681289966049
