  25
        -42.16441629
 C          3.4280104299        0.8410875550       -0.0546492832
 N          2.4154566238       -0.1774208654       -0.0495512382
 C          2.6095334514       -1.4929349635       -0.0061390773
 N          1.4138715074       -2.1341148051        0.0264433309
 C          0.4361678937       -1.1915075195        0.0079837124
 C          1.0599130513        0.0596433601       -0.0452403614
 C          0.3245548086        1.2565951984       -0.1141153242
 O         -1.1861562980        3.3793528358        0.2957886537
 N         -0.9926884715        1.0614739439       -0.0805005550
 C         -1.8767333058        2.2678506488       -0.0805202477
 C         -1.6900368358       -0.1539528907       -0.0176979880
 O         -2.8874066655       -0.2066675490       -0.0054147533
 N         -0.9012899853       -1.3177586497        0.0223548911
 C         -1.5503128395       -2.6129790714        0.0740361176
 H          3.9253010739        0.8872934282        0.9155279592
 H          4.1725630489        0.6344968785       -0.8225143560
 H          2.9474550035        1.7971986015       -0.2514304695
 H          3.5628207091       -1.9830241838        0.0011848553
 H         -0.6092370709        3.7193001633       -0.4067192056
 H         -2.3314341302        2.3316670704       -1.0797471217
 H         -2.6667793936        2.0935378107        0.6574217254
 H         -1.2535463493       -3.1517855254        0.9747155147
 H         -1.3030829644       -3.1986665300       -0.8122233334
 H         -2.6253299086       -2.4433913184        0.0988780445
 H          1.2848704066       -3.1361645562        0.0611092504
