25
 energy: -42.108467614773 gnorm: 0.002989405949 xtb: 6.6.1 (8d0f1dd)
C            3.16369317237354        0.88124289510100        0.18616700271479
N            2.26603284540369       -0.09469551895893        0.11282929417615
C            2.49160511764574       -1.42632599011712        0.05002946090578
N            1.30603981040608       -2.09465887730333       -0.00828164022512
C            0.30132749322376       -1.17919633122543        0.01800982025472
C            0.88316382260446        0.07499457841058        0.09010747727853
C            0.09453412249878        1.28467602706735        0.12508579532028
O            0.52789038878641        2.41189238198272        0.17859940907186
N           -1.27130423304853        0.99762919557315        0.07615478291411
C           -2.19520595731683        2.12322603452421        0.09870534973762
C           -1.87641114430577       -0.24335247163025        0.01072275558732
O           -3.06718886120754       -0.37803699483209       -0.02280544628118
N           -1.02703224208481       -1.37245291144281       -0.01904370199477
C           -1.61565412145299       -2.69427162790964       -0.07751315714232
H            2.80902556981730        1.89547427771172        0.23556225930826
H            4.20894278900569        0.63705368519047        0.20195381135211
H            4.10666205661497        3.84922329401348       -1.24518454155315
H            3.45441074028917       -1.89280922164697        0.04693519813076
H           -1.61191815606504        3.03923123366534        0.15446082913701
H           -2.80652946713340        2.11673965810837       -0.80318034911477
H           -2.85637787871514        2.04151556678818        0.96163928033392
H           -1.31753926431473       -3.28304628667473        0.79083784609005
H           -1.32298456404898       -3.20532090798288       -0.99585955546428
H           -2.69845793740620       -2.57220081346242       -0.06981329063962
H            1.21370741253137       -3.09829233334907       -0.06494707199968
