  72
        -99.27024508
 N         -1.6883234966        2.6695630998        2.5121676046
 C         -1.7039945996        2.0664837293        1.4187600853
 C         -2.8809419102        2.0122189468        0.4846837354
 C         -3.4231341232        0.5918404739        0.4324627751
 C         -4.3922144520        0.2553493932       -0.5150733778
 C         -4.9272741480       -1.0200312922       -0.5820942447
 O         -5.8723863059       -1.4237216715       -1.4564620070
 C         -6.4633235797       -0.4788134744       -2.3172306815
 C         -4.4737330796       -2.0177437641        0.3224658321
 O         -5.0399477909       -3.2329841911        0.1774401052
 C         -4.7077145840       -4.2559548282        1.0866323580
 C         -3.5145378829       -1.6765881941        1.2621381206
 C         -2.9994186004       -0.3870753659        1.3172961742
 C         -2.3373162274        2.4222442252       -0.9094895351
 C         -1.4820472957        1.3462739505       -1.6044659038
 C         -0.1462474972        1.1702570403       -0.9931217046
 N          0.4368631515        0.0032908374       -0.7311852515
 C          1.8126557185       -0.0442415523       -0.2996150313
 C          2.7619460139       -0.4606517881       -1.4410984142
 C          4.1905285450       -0.2997670731       -1.0052638049
 C          4.8443553981        0.9129066459       -1.1837948823
 C          6.1511708551        1.0815874749       -0.7701363699
 C          6.8280989858        0.0323465712       -0.1525290539
 O          8.1002844279        0.0872014072        0.3123623397
 C          8.9704753361        1.0103313819        0.0179612266
 C          6.1685497655       -1.2114760169        0.0471364108
 O          6.9131306457       -2.1648059846        0.6339661619
 C          6.3614842387       -3.4473758018        0.8363745323
 C          4.8577168910       -1.3518263980       -0.3819457983
 C         -0.2458188581       -1.2540479957       -0.9218481892
 C         -4.0407078052        2.9642121901        0.9027946035
 C         -4.6659783994        2.5335329083        2.2275077308
 C         -3.6163326665        4.4278580475        0.9852813770
 H         -4.7439117199        1.0080998880       -1.2007596142
 H         -6.9304716089        0.3367367007       -1.7570625058
 H         -7.2293361947       -1.0232266820       -2.8658804652
 H         -5.7362912727       -0.0685372097       -3.0257841945
 H         -4.9488091377       -3.9719536346        2.1152249817
 H         -5.3139988442       -5.1119774671        0.7971917938
 H         -3.6483294927       -4.5242291670        1.0201073211
 H         -3.1662902774       -2.4069621399        1.9743475895
 H         -2.2777605749       -0.1518967702        2.0842625894
 H         -3.1802296317        2.6540826616       -1.5594926892
 H         -1.7450768967        3.3318264653       -0.8018210434
 H         -2.0336421466        0.4087630501       -1.6433934165
 H         -1.3290740580        1.6871598574       -2.6369016925
 H         -0.8274841463        1.5383731764        0.9949613194
 H          0.4663149672        2.0518419181       -0.8745605066
 H          1.9055913660       -0.7523006060        0.5284263433
 H          2.1096745994        0.9427841278        0.0605676833
 H          2.5666351526        0.1754148842       -2.3063768830
 H          2.5670519414       -1.4958124544       -1.7233477866
 H          4.3311886079        1.7342813533       -1.6598735506
 H          6.6339955870        2.0352409449       -0.9065906476
 H          9.9301101515        0.9425109073        0.5287182687
 H          8.7867755268        1.7844386474       -0.7120294185
 H         11.5984924504        1.1536133453        1.3620444608
 H          7.1500898663       -4.0290430748        1.3086107729
 H          5.4926151610       -3.4087674908        1.4997739724
 H          6.0828042911       -3.9144465141       -0.1127819148
 H          4.3468845151       -2.2917847980       -0.2473849077
 H         -0.4298285061       -1.4466181282       -1.9809381906
 H         -1.2022628504       -1.2538244925       -0.3930879390
 H          0.3678335385       -2.0585125669       -0.5247930669
 H         -4.8081731000        2.8782986604        0.1251122152
 H         -3.9384554426        2.6204494017        3.0279636142
 H         -5.0190473405        1.5062218912        2.1805731842
 H         -5.5119582893        3.1761486722        2.4565985534
 H         -2.8386289774        4.5536365334        1.7321534619
 H         -3.2606292440        4.8028610314        0.0292882582
 H         -4.4712665034        5.0300365621        1.2812873748
 H         -0.8250924984        2.6609534448        3.0463427701
