72
 energy: -99.246534130047 gnorm: 0.002996047712 xtb: 6.6.1 (8d0f1dd)
N           -1.88725262354814        2.89481308431356        2.09363674948831
C           -1.97742953989975        2.16562681903306        1.08399828262712
C           -3.23315329119661        1.97621062912729        0.27766761781355
C           -3.67007394298684        0.52224768314714        0.35898959115409
C           -4.63066267432045        0.03094138777149       -0.52721559238631
C           -5.06917473943040       -1.28149204062509       -0.46447743040429
O           -5.98831439550794       -1.83608568420694       -1.28125248866006
C           -6.62246339454145       -1.03773891848946       -2.25239052938589
C           -4.53426807875932       -2.15185456947075        0.52397553805030
O           -5.01375971476990       -3.41130679956460        0.50860185152220
C           -4.60292480354815       -4.31262638830179        1.51053837137383
C           -3.58907734814809       -1.65398732813892        1.40727947107673
C           -3.16378711408522       -0.33477178963346        1.32435097023527
C           -2.85328694509122        2.34778967827892       -1.18011005147049
C           -1.99077016791344        1.29972727115747       -1.90143783796954
C           -0.58062888878825        1.26192990071084       -1.44429791147753
N            0.13532034205564        0.17728428547766       -1.25378611469016
C            1.62087477165411        0.22606935603930       -1.29463599509226
C            2.05154105493710       -0.24440762258330       -2.61324333290216
C            4.96524355158452       -0.56567529552132       -0.39629911243318
C            5.41469328615255        0.66777844267007       -0.75879600152926
C            6.72353411704986        0.99800795129847       -0.39712207268695
C            7.51600165291823        0.09411724386473        0.29561501872802
O            8.78601797355050        0.31121598704391        0.69504480042842
C            9.39686773791250        1.54808628719668        0.40825805633907
C            7.00064501349071       -1.18929493139262        0.63996921235950
O            7.84570786325812       -1.99794424771203        1.29985362359048
C            7.43031713605376       -3.29647829117825        1.65254921345232
C            5.68875209794673       -1.50637673194098        0.27785051053449
C           -0.45591793556711       -1.14107440139516       -1.25371710100477
C           -4.42082717600780        2.86336928298937        0.75697555285421
C           -4.86483895214060        2.49022538277897        2.16940485350589
C           -4.12065917417182        4.35833064430169        0.69135272605256
H           -5.05173139263676        0.68883423261009       -1.26926393151235
H           -7.15511796903961       -0.19752690335304       -1.79715581902083
H           -7.33860658493540       -1.69235383198677       -2.74517975778483
H           -5.90892497018639       -0.66218414104133       -2.99329561905225
H           -4.85812897952962       -3.94410644006322        2.50854085728105
H           -5.14806335874360       -5.23437929564157        1.31573075155097
H           -3.52739745510218       -4.50997746671079        1.45691812297585
H           -3.18089214699641       -2.28514043800742        2.17966572762799
H           -2.44666746992509        0.02416376932494        2.04626925502129
H           -3.76849426989553        2.48828387411150       -1.75461752415764
H           -2.32297738271126        3.30074408276523       -1.17132148804149
H           -2.46197093559923        0.32088507264448       -1.82963637192955
H           -1.96708368828428        1.58101388965404       -2.96300075615704
H           -1.12427748622283        1.61419385327622        0.64472633859837
H           -0.04833717789977        2.20283214644420       -1.41476129632176
H            2.00060107898574       -0.40595484726471       -0.48872237135030
H            1.91116193263424        1.26244670740658       -1.10406834871504
H            1.92167469495160        0.38717755402530       -3.46962286921678
H            2.28828283304118       -1.27545130256283       -2.77527142043929
H            4.81035055812856        1.37193959454871       -1.30645250762821
H            7.10458883901762        1.96833979358710       -0.67279759053903
H            8.85783952096983        2.37840305545254        0.87464153431551
H            9.47049498932078        1.71815717465223       -0.67024010061490
H           10.39714475738882        1.48346690372195        0.83258795625046
H            8.28658626677721       -3.75339135403877        2.14461751640853
H            6.58487005354637       -3.27023984890389        2.34688521775474
H            7.16330371779190       -3.88450667353421        0.76921011791082
H            5.26821967787486       -2.46864154581070        0.52384510804625
H           -0.77758622993137       -1.44262888983055       -2.25238301031758
H           -1.31746686348922       -1.16067214282550       -0.58351517414846
H            0.28284183255858       -1.85630931649254       -0.90020622336613
H           -5.25446711198650        2.65296460231360        0.07641194604094
H           -4.06867294717003        2.69810084262444        2.87728197620554
H           -5.13068281801468        1.43790375352003        2.23394807717695
H           -5.73511819139371        3.07978697620554        2.44504992363213
H           -3.28002939157755        4.60111956530227        1.33428159760656
H           -3.90494457626721        4.68680336782365       -0.32208784419165
H           -4.98831112963935        4.91157179095959        1.04214680720143
H           -0.98174032736660        2.97581508118367        2.54497559619230
