25
 energy: -42.056153137549 gnorm: 0.006318014557 xtb: 6.6.1 (8d0f1dd)
C            2.57297665361416        1.05876877511180        0.54339974304077
N            1.74862352237860       -0.02100432887018        0.02306662704756
C            2.38851844833402       -1.13135168779796       -0.29816714706176
N            1.83795721232724       -2.33360102307960       -0.63764546145070
C            0.64507821012709       -2.82361491343270       -0.29036870011554
C            0.39816670379109        0.22411367015876       -0.12292411101231
C           -0.11166594491949        1.63275966580470       -0.20901863328456
O            0.60894178080630        2.59513938620333       -0.49161505249866
N           -1.40160173898429        1.73512434205896        0.04659382913555
C           -2.22736866273042        2.83502086746129       -0.11980670526015
C           -0.64818859621603       -0.72755743307970       -0.30302701357260
O           -1.77869722698500       -0.44551087946314       -0.62879880062450
N           -0.41020028689388       -2.15238539337033        0.01611148289374
C           -1.60593249451746       -2.84441153869637        0.45843805281651
H            2.36446802098710        1.19856774076425        1.60597154939102
H            3.62848269081444        0.84027915471082        0.40627566263266
H            2.32227435026130        1.99207591218559        0.02829987696246
H            3.46761696758796       -1.11377997059931       -0.23505874869201
H           -1.67357446201560        3.72718261294784       -0.44432131280007
H           -2.98718762022380        2.59771097602579       -0.87406422368937
H           -2.75054800989660        3.03178794209661        0.82198865754434
H           -1.37872675724649       -3.89745740641964        0.59239819911246
H           -2.39556192934838       -2.71815221424829       -0.28425522859329
H           -1.95087993722975       -2.40913337762061        1.39634439929483
H            2.49746062027940       -3.03233233725097       -0.96864532331762
