25
 energy: 25.224459979828 xtb: 6.6.1 (8d0f1dd)
C            3.52212205683881        1.87766818795159        0.09273372689185
N            3.50981976088018        0.84729263001564       -0.62220756533481
C            1.54028522540183       -1.10501723898145        0.33554443746563
N            0.97581676473033       -2.33621024891279        0.19773838357018
C           -0.36435723444455       -2.26216265856486        0.03223102525785
C            0.50311488989314       -0.19973739402999        0.23948102176981
C            0.16755960276097        1.18836931844668        0.26557843737375
O            0.86246836423727        2.18164545275205        0.43812982654769
N           -1.21201784682082        1.20638625587079        0.04082520758265
C           -1.99967539100742        2.41615260996196        0.01299809260839
C           -1.76264271858171       -0.05765192147525       -0.09081197763413
O           -2.93436208091255       -0.33955981946435       -0.26795352609982
N           -0.68250554846823       -0.93023539845000        0.03334173315780
C           -1.34330962039253       -3.34584493548006       -0.16930794606652
H            3.42691314125853        1.74957415938193        1.16259457652071
H            3.59520526921049        0.99206784341268       -1.62999247295069
H            3.64814810258994        2.90219324979363       -0.26351422291600
H            2.60447639042798       -0.92741598365750        0.42249172333557
H           -1.32940021921188        3.27154587861149        0.10995330521474
H           -2.54206482054851        2.47102425627383       -0.92939941403527
H           -2.71708828819425        2.42133973757473        0.83604373401229
H           -1.35159368012071       -4.06724743211265        0.65158833059722
H           -1.14166607824734       -3.89076097475997       -1.09264561170565
H           -2.32578377144926       -2.87449653711811       -0.24016236813119
H            1.44177958361336       -3.23264856074314        0.22244452217992
