25
 energy: 113.824228543242 xtb: 6.6.1 (8d0f1dd)
C            3.32679149567221        1.45323941802741       -0.24693934636711
N            2.49947435438384        0.32111028094078       -0.68113653570257
C            2.06265613439448       -0.72530531624814        0.24466928810363
N            1.26977495238278       -2.09921106368553        0.00097047534862
C            0.11054807029847       -1.41332707499369        0.15438306181027
C            0.67497965585405       -0.18864020857753        0.48988573287606
C            0.13891553075890        1.13764180751126        0.31671014629988
O            0.65622986846703        2.23135900567102        0.45869229133473
N           -1.25086374848510        1.01084430996859        0.07151387406758
C           -2.03642477371702        2.27369171732214        0.00809554624985
C           -1.89032843676175       -0.20272714777731       -0.10335094860758
O           -3.08084065239037       -0.27332142799623       -0.25321027685364
N           -1.17187986984004       -1.48816933852587       -0.16558242491283
C           -1.54389359005101       -3.00893522141119       -0.22934214291027
H            3.59683155810606        1.50934854801819        0.84921386909473
H            3.94075776578004        1.22318024429587       -1.15863163639397
H            3.06871355069513        2.51999656856438       -0.37000030310398
H            2.89966701665488       -1.06535699433051        0.91417857284318
H           -1.31604501109050        3.09311247701458        0.07332161881600
H           -2.60054510918635        2.36496730111655       -0.92627103411734
H           -2.73584154035282        2.39176502794477        0.84067288555554
H           -1.26116626616303       -3.59835499696318        0.65865950085676
H           -1.06771092768726       -3.54383429362127       -1.06373751653517
H           -2.60501466510006       -3.03447540292509       -0.33785911236103
H            1.47542018861081       -3.07553314012583        0.17569366085485
