25
 energy: 36.264903220585 xtb: 6.6.1 (8d0f1dd)
C            3.50960611123320        1.81531393014114        0.08678401816121
N            3.38753421494414        0.78335724761083       -0.61673454177083
C            1.59505918226329       -1.11696244379717        0.42052894807093
N            0.99825772520392       -2.34170682791439        0.26169364023526
C           -0.35673772354802       -2.24313783779931        0.13029519393692
C            0.49544478696542       -0.24524898532336        0.38099039830123
C            0.17274309038400        1.14926421945145        0.28642425112916
O            0.83519167777640        2.17224623902187        0.39624274197816
N           -1.19752312988163        1.18353012883818        0.00058389830907
C           -1.97829443503026        2.39071861050118        0.00517555902207
C           -1.79034771804609       -0.04527964178095       -0.13518716833720
O           -2.98148866176337       -0.27421721566368       -0.25370038050174
N           -0.70687506395998       -0.93449673863490       -0.05009547779692
C           -1.30914488120558       -3.32907135988183       -0.11694604204586
H            3.35308270633332        1.74683932304621        1.16123165064692
H            3.46008587798628        0.94819171886594       -1.63705644595447
H            3.69091040258851        2.83014106535097       -0.28897760004184
H            2.67910441031538       -0.96133096885992        0.52349307689570
H           -1.28571995629607        3.22817728667810        0.08534041849399
H           -2.54004699209696        2.46960457548735       -0.92411121202117
H           -2.67223527709767        2.42423294358130        0.85010233785563
H           -1.31040642496014       -4.05229305263776        0.69542899992106
H           -1.08697012062770       -3.84425273417391       -1.05880456021019
H           -2.29338187905088       -2.86279440618805       -0.21757709128792
H            1.43801208926549       -3.25052997266430        0.19178005140256
