25
 energy: 31.332208374737 xtb: 6.6.1 (8d0f1dd)
C            3.20785309354043        1.30115966931186       -0.09275943121145
N            2.20272505708005        0.19916822110451       -0.22880332696404
C            2.42201204435729       -1.14620238160798        0.11732715946121
N            1.31967650685769       -2.00056188890478        0.15438050232746
C            0.24476326699244       -1.22241124262927        0.00486884675867
C            0.77681219183286        0.09022493423074       -0.02051988677674
C            0.07890455238332        1.28880122595695        0.13111982997911
O            0.54753648773299        2.42470250483457        0.25156594758207
N           -1.32237285586902        1.01383566566324        0.08046240198638
C           -2.15194203882766        2.20874981100816       -0.01223938467175
C           -1.88659640517499       -0.23633458926020       -0.09384538126416
O           -3.08053547428023       -0.36744199024051       -0.25515222810811
N           -1.09141865085324       -1.45750965455254       -0.05498214972194
C           -1.49845577615766       -2.85687108495928       -0.15178498621657
H            3.67583144329962        1.40421870208663        0.90807075337251
H            3.87025974338742        1.08425602819058       -0.94953988746886
H            2.84813560597381        2.31886680229873       -0.23188325857167
H            3.34157992922134       -1.47025763513762        0.53150882620896
H           -1.48971450778470        3.07807579087291        0.02413871338271
H           -2.72317293140823        2.23089948990385       -0.94196784038931
H           -2.82983220430133        2.25145032482001        0.83516542447516
H           -1.21178828562493       -3.41830798878257        0.74261887769633
H           -1.09514081249137       -3.36931744428416       -1.02530597529404
H           -2.57186114151578       -2.80729555658278       -0.22040518708354
H            1.36166957668851       -3.01073703667944        0.18191311718001
