25
 energy: -4.524349563382 xtb: 6.6.1 (8d0f1dd)
C            3.23127557664110        1.19900850012297        0.05386767845193
N            2.27464391651226        0.13101182323930        0.00205280946354
C            2.55849613255106       -1.21861726028135        0.08989395117910
N            1.39624707026087       -1.94749007750440        0.03871262374973
C            0.36217725161951       -1.09051594606252        0.01895461541331
C            0.87821312938117        0.20417404091231        0.03398751013897
C            0.10278568548669        1.37086543972271        0.02484511449049
O            0.50525185353149        2.53752998424916        0.04571322676383
N           -1.28257088215468        1.03944027517295       -0.01229793511973
C           -2.20772358841435        2.16105215496871       -0.04320085004151
C           -1.83818840950656       -0.20828140273066       -0.05813549424771
O           -3.03702275926712       -0.38353620153878       -0.10664053843431
N           -0.97563263499391       -1.33406842622325       -0.02951324828065
C           -1.47807157820787       -2.68682890917564       -0.07799595674816
H            3.71142946700205        1.25901384801125        1.03782275084539
H            3.97967608050531        1.04242273346411       -0.72923237405369
H            2.72724321845394        2.14667692878855       -0.11769338271889
H            3.53156096425051       -1.62381844086167        0.13374643039357
H           -1.62884672768489        3.08389726467610       -0.01569994296302
H           -2.80643621758639        2.12353910971583       -0.95257875816381
H           -2.86909888839285        2.11233024923229        0.81974768239331
H           -1.17814445478333       -3.24325133308313        0.81352105535377
H           -1.13465208788989       -3.21411142520766       -0.97050567775610
H           -2.56090691007532       -2.60714605324252       -0.10336661066232
H            1.36146784339156       -2.95385091928343        0.02820346049100
