25
 energy: 0.707913125994 xtb: 6.6.1 (8d0f1dd)
C            3.22246674188294        1.22451951968807        0.02004054113222
N            2.24608018476164        0.15676784264048       -0.03898133942393
C            2.51522426312128       -1.19762771506391        0.12601087145783
N            1.37153225576166       -1.95890344265665        0.07374150880048
C            0.32418193047474       -1.12373152884961        0.03638219676411
C            0.83855075158364        0.17645450005505        0.03189496930081
C            0.09128560280408        1.35257924522194        0.05198044244395
O            0.51526714890346        2.51178212336436        0.09621055086565
N           -1.29787003858873        1.02890371683373        0.00727780528383
C           -2.19584584592400        2.17210498763872       -0.03630567369939
C           -1.86036497125452       -0.21810569443298       -0.07193093150997
O           -3.05876351288221       -0.38247412072030       -0.14476825691973
N           -1.01395727349071       -1.36859841979655       -0.02103495947999
C           -1.48488420866241       -2.73126838384562       -0.09589978876718
H            3.70439124443926        1.29728708281604        1.00634720782822
H            3.94897340283077        1.04910207735576       -0.78427454595405
H            2.75642981594125        2.19146604872449       -0.14457457694377
H            3.48467534380682       -1.59476322233000        0.23233370571227
H           -1.59336680403660        3.08098029459032       -0.00633400060736
H           -2.78803207282266        2.15186567237755       -0.95053008168464
H           -2.86072315645068        2.14757915343731        0.82386103532699
H           -1.18663519094676       -3.28918869353684        0.79555055975418
H           -1.12483745993203       -3.25170008079878       -0.98511809880703
H           -2.56491792690743       -2.65855489487282       -0.13224108656879
H            1.35399450274987       -2.96695591249569        0.06866815554488
