25
 energy: 140.636679654464 xtb: 6.6.1 (8d0f1dd)
C            3.40038747260965        1.49467435206394       -0.22532168503857
N            2.58820965005796        0.36526933240352       -0.65139916656741
C            2.00022417831077       -0.66748644651138        0.25319268895516
N            1.25427679388882       -2.11313023081026       -0.06427595324929
C            0.07133584547275       -1.43758283149619        0.11239353272729
C            0.62797059415420       -0.19839865334449        0.41798313916381
C            0.13984261800353        1.11508588039655        0.32922372901684
O            0.69226913048697        2.17656109783581        0.54511845416959
N           -1.26392781160725        1.02721532881196        0.07510383564241
C           -2.00394125485825        2.30898545613461        0.01940239940117
C           -1.90177573751137       -0.17717514356025       -0.15000648919035
O           -3.09223003698735       -0.26366112730531       -0.30305194604568
N           -1.17670092052901       -1.48099841859903       -0.30358869333304
C           -1.57098289378426       -3.07355765074682       -0.24710831299039
H            3.60049526214957        1.60488332682242        0.89432780819612
H            3.89881363160146        1.18732183925701       -1.20371973438767
H            3.18924180499294        2.57404442483500       -0.42335123973832
H            2.74971325778662       -0.93523490633944        1.01956174252557
H           -1.24929587424055        3.09882937143089        0.10061714232361
H           -2.55099164294759        2.42112410435662       -0.92177320128429
H           -2.70374554993621        2.45488006832561        0.84616056070290
H           -1.28721965162647       -3.66728264072957        0.64032718841651
H           -1.12024803531899       -3.59544691099016       -1.08682118821687
H           -2.63010524477961       -3.03900774119079       -0.33273196756802
H            1.46569081865449       -3.09944378908972        0.11487517868500
