25
 energy: 109.531053102064 xtb: 6.6.1 (8d0f1dd)
C            3.26320394051826        1.40744376243673       -0.22152374241384
N            2.40299872431359        0.28248224157587       -0.65877088368838
C            2.12438275286197       -0.81945671687054        0.26801896047098
N            1.28693338298485       -2.07949312534326        0.07700009199003
C            0.13807891300966       -1.35813379908577        0.14439716277608
C            0.74546207829026       -0.12399677747760        0.39553874174072
C            0.13366561900610        1.19322473381165        0.29216599246999
O            0.61783467842880        2.30574053747611        0.39423356562724
N           -1.26445431172844        1.01305140226898        0.10992870049986
C           -2.07437655275086        2.24722812510511        0.00494382014975
C           -1.89592384008676       -0.21050180844831       -0.11918600252755
O           -3.08068116970383       -0.28040424665962       -0.33098566473344
N           -1.15253848636551       -1.45728222971174       -0.15628324107253
C           -1.52853534129501       -2.95252133812173       -0.20283845794111
H            3.62264785496983        1.49452492069355        0.82679319048612
H            3.86419058765240        1.20823965767285       -1.12385690899599
H            2.96177218613486        2.45521054388550       -0.32709958175194
H            3.03493503218353       -1.17650518790799        0.80962167397536
H           -1.38405546481491        3.09071597235905        0.05392408606473
H           -2.64317727220271        2.30590817571493       -0.92995678094040
H           -2.77302979842903        2.33723632592491        0.83875182930685
H           -1.23821396618813       -3.51965092261989        0.69022665115368
H           -1.07433752939497       -3.47413839241050       -1.05137182266999
H           -2.58927515928442       -2.94880222389087       -0.30412169702603
H            1.44386542414872       -3.06575193787841        0.24341249417291
