25
 energy: 108.391101832882 xtb: 6.6.1 (8d0f1dd)
C            3.29179458113016        1.42808506587804       -0.24564553726202
N            2.45421498576911        0.29697329959036       -0.69556349936530
C            2.09261911590371       -0.77204554618757        0.24552720142547
N            1.27518242815759       -2.09222193898141        0.03768208254948
C            0.12049495246373       -1.39370145633457        0.19469444835041
C            0.71118713398238       -0.15995122227873        0.45207940510391
C            0.13651501418627        1.16231422144315        0.30364955616767
O            0.63716546253988        2.26653355705368        0.42350648208229
N           -1.25827748411469        1.01136491237646        0.09573118589399
C           -2.05529866745644        2.26041389996719        0.00718523333404
C           -1.89600713312811       -0.20572705444397       -0.10418745087685
O           -3.08254366168509       -0.27518292034756       -0.29334671436686
N           -1.16781102325601       -1.47489008606086       -0.12392741361587
C           -1.54221169921658       -2.97230185942662       -0.20953886713556
H            3.60171767963911        1.48870731240185        0.82389579030330
H            3.92383332927777        1.21004327552884       -1.13265307205692
H            3.01595596046687        2.48735783756954       -0.35365411742751
H            2.96803522205878       -1.11903994821253        0.87147667806837
H           -1.34965080715388        3.09174180014775        0.06366996735325
H           -2.62175638749100        2.33525389652873       -0.92787484733749
H           -2.75497441939619        2.36508035091684        0.84000790949759
H           -1.25404091068799       -3.56069191643343        0.67438759718841
H           -1.07065462369602       -3.50061312705751       -1.05368604196264
H           -2.59802330726697       -2.99171492894684       -0.33015205064091
H            1.46615899361093       -3.07082779226677        0.21586515153824
