25
 energy: 27.778035071909 xtb: 6.6.1 (8d0f1dd)
C            3.51854246565535        1.88620625609636        0.08035531784579
N            3.49878779639664        0.85391059483042       -0.62959678608711
C            1.55767673976983       -1.13447316244299        0.30546664685964
N            0.98222312239111       -2.36177641697267        0.18935758159150
C           -0.36965221004881       -2.27930209855908        0.07851719300256
C            0.50164830192796       -0.23109789000760        0.26759535903499
C            0.17797500817739        1.16240418568759        0.25559524034871
O            0.87003842250429        2.14904774977568        0.46147200481799
N           -1.20064639958178        1.19960105916060        0.01626729667798
C           -1.98976023226065        2.40832669689971        0.01499690788001
C           -1.77072364966679       -0.05526889824041       -0.10933547163004
O           -2.95144909607823       -0.30812447444404       -0.26650013806906
N           -0.69713874444852       -0.94135931987054        0.00322071663161
C           -1.33463365839270       -3.36503265087944       -0.13917582314185
H            3.41894551862735        1.75733705990229        1.14961582939222
H            3.58085341004094        0.99451040643996       -1.63758259250476
H            3.69165887922066        2.91529385462586       -0.26335086235213
H            2.63104604674920       -0.95238882660493        0.34971787864032
H           -1.32067134076997        3.26523583195915        0.10118784890949
H           -2.55367435056962        2.47281304602524       -0.91377411109593
H           -2.70502197000776        2.41627298821693        0.84215495660145
H           -1.34611544372484       -4.08750433056841        0.66947165081572
H           -1.11352859106065       -3.88530719048800       -1.06922514224642
H           -2.29701071838787       -2.86605589252539       -0.23011383678437
H            1.42745294514154       -3.26854830471066        0.23408367845088
