25
 energy: 8.907774397155 xtb: 6.6.1 (8d0f1dd)
C            3.21443682370590        1.24971532621640       -0.01678449527444
N            2.22169669891222        0.17793899443387       -0.09646662319646
C            2.47510105281956       -1.18081566595937        0.11282819412283
N            1.34776314190758       -1.97193008075105        0.10567409776508
C            0.28768468572172       -1.15849117959999        0.03931795816957
C            0.80664290598521        0.14439311969360        0.00568645522907
C            0.08280610896614        1.33080993852273        0.07693767289064
O            0.52583593931097        2.48225172959775        0.14779038587376
N           -1.31147741598705        1.02077245257885        0.03009553154199
C           -2.18260982962946        2.18430974579369       -0.02831342082951
C           -1.88099552036089       -0.22311261006648       -0.08065954835365
O           -3.07739690573375       -0.37981193831869       -0.18188227601587
N           -1.04987318431460       -1.40363945259717       -0.02146292592435
C           -1.49173121958841       -2.77616295168984       -0.11494107019537
H            3.69454429394193        1.33304181342646        0.97389001683309
H            3.92041226304067        1.05790119119829       -0.83917378411083
H            2.78736700659684        2.23576792900712       -0.17313487076768
H            3.43498436512265       -1.55687339237803        0.33557304788318
H           -1.55815337625297        3.07929015973996        0.00442500170033
H           -2.76729329819105        2.17986047530511       -0.94794333029216
H           -2.85143433963608        2.18251986675401        0.82804288312423
H           -1.19648676450952       -3.33534622196415        0.77732508470678
H           -1.11503959551881       -3.29147277789676       -0.99943200301396
H           -2.56901667906688       -2.71051922664086       -0.16281302225254
H            1.35319683336253       -2.98101181436146        0.11064874439190
