25
 energy: 19.144352672845 xtb: 6.6.1 (8d0f1dd)
C            3.20958577865356        1.27497511467622       -0.05635083621808
N            2.20794947978940        0.19229633509434       -0.16601385878678
C            2.44379607448812       -1.16717088348779        0.09242941069783
N            1.32676650705397       -1.98430108345322        0.13347427548720
C            0.25506291744947       -1.18926796823632        0.03628093787439
C            0.78824827278765        0.11509814680685       -0.03400860947394
C            0.07884362231284        1.30836854275907        0.10076467581824
O            0.53551292285988        2.45236612509667        0.19989281236950
N           -1.32090940284960        1.01584613787781        0.05632347578337
C           -2.16852848656873        2.19680673467395       -0.02014319829982
C           -1.89473267179759       -0.22823809530103       -0.07949536688140
O           -3.08865893869721       -0.37342649863840       -0.21839454427857
N           -1.08547040376947       -1.43275040977971       -0.01714477279525
C           -1.49810859670208       -2.81808800427307       -0.13154707137063
H            3.68484379306906        1.36737596103114        0.93961910091358
H            3.89521179469013        1.07059833895963       -0.89552031222817
H            2.81721326500759        2.27781209772583       -0.20180387115701
H            3.38395491656267       -1.51583936121871        0.43609521739202
H           -1.52436016180737        3.07863133078960        0.01393318667959
H           -2.74611376359033        2.20551081052589       -0.94514998397754
H           -2.84176089044263        2.21779982822817        0.83179601758553
H           -1.20583753955777       -3.37948668518701        0.76032577840567
H           -1.10421063052764       -3.32764532681289       -1.01183598854565
H           -2.57278013615389       -2.76152278510870       -0.19240121178292
H            1.35464778085350       -2.99432991433942        0.14878926021909
