25
 energy: 76.341519090519 xtb: 6.6.1 (8d0f1dd)
C            3.42878036099691        1.70169558600172       -0.00415529853696
N            3.13489988495599        0.66153866117883       -0.66061602525187
C            1.65285175529766       -0.99199578723484        0.34568326348528
N            1.05897402606547       -2.25442509675373        0.12346144946950
C           -0.32572880400669       -2.12616227260691        0.07304424846232
C            0.54806215587829       -0.19055043363834        0.18170823077087
C            0.17306414680820        1.16125012859374        0.27830939369750
O            0.80202802670203        2.18433858027452        0.51618880823057
N           -1.22452335904789        1.16067436863928        0.05894841613306
C           -1.97329899772562        2.38337866060026        0.04048565045644
C           -1.81617461525130       -0.04327522658705       -0.16015371162390
O           -3.00086048690812       -0.28678177643836       -0.29295321068368
N           -0.73689259577399       -0.92188765183877       -0.30766251533540
C           -1.38729044859065       -3.26376111100995       -0.18096527008649
H            3.47719469700815        1.72460074853732        1.09381326263488
H            3.51756292875058        0.94276609398968       -1.55099108648551
H            3.43910249550397        2.72144931819095       -0.40201456496553
H            2.58221207986314       -0.87742453132389        0.93639397228407
H           -1.23850693236825        3.18112295775287        0.13101315051052
H           -2.51310252714371        2.48418802535965       -0.90500633411162
H           -2.67796965101859        2.43941717839784        0.86858023860694
H           -1.33144895361311       -3.90384876998566        0.66836797975226
H           -1.12291694642353       -3.76725159486632       -1.09704622846507
H           -2.44019793020282       -2.93474031960456       -0.27681994349221
H            1.46977527649607       -3.17487784595574        0.20538477909565
