25
 energy: 72.966189616858 xtb: 6.6.1 (8d0f1dd)
C            3.19580363085338        1.35899236203515       -0.15902134447330
N            2.18442202257715        0.22528624335291       -0.37714995922446
C            2.34428584558339       -1.06646556521840        0.18617812069180
N            1.31264811095890       -2.02929225336234        0.19284033455682
C            0.20345544362523       -1.27340536621601        0.07555611166718
C            0.75250998780413        0.02935352489653        0.11090104629110
C            0.09183412269480        1.24942276501773        0.22789999109134
O            0.58817973571965        2.36921675551899        0.34567342174167
N           -1.30437936232178        1.02147457787505        0.12361758203206
C           -2.10727431314048        2.24044586643860       -0.00122252124751
C           -1.89170629503211       -0.21711960151591       -0.10642810204525
O           -3.07810733972476       -0.31232604942263       -0.31976551382861
N           -1.12389766277551       -1.44500247463665       -0.10955758753817
C           -1.50102652608276       -2.91297912954117       -0.18465376254208
H            3.62744433340978        1.46312085102988        0.85564204260856
H            3.81228313110383        1.12768983970106       -1.04654025333803
H            2.91350147630999        2.40545381166400       -0.29294099275025
H            3.24115845025197       -1.34591047697358        0.67420522238384
H           -1.41904827831484        3.09057704880989        0.04029390028759
H           -2.66855842943999        2.27953566682908       -0.93900079089143
H           -2.79789263711684        2.31675718229432        0.83430303338258
H           -1.22449235059093       -3.48636783704474        0.70762327832000
H           -1.07236711569957       -3.43333063741302       -1.04709162465159
H           -2.56646807625202       -2.88454240931468       -0.27809313004522
H            1.40587372319112       -3.03987779464409        0.25509816011129
