25
 energy: 31.294146734423 xtb: 6.6.1 (8d0f1dd)
C            3.51733649932646        1.84212416934299        0.08327330373184
N            3.47098081914300        0.80525625265775       -0.63075713623355
C            1.57040193047768       -1.13015745934265        0.37111143665755
N            0.99000747658725       -2.35420157088356        0.23060681969456
C           -0.36242474631334       -2.26677279144192        0.11576061308131
C            0.49391377587443       -0.24212807836867        0.32469666058877
C            0.17781365124253        1.15176388247375        0.27273216437589
O            0.86131529075986        2.15477158672557        0.42148686762725
N           -1.19376555812535        1.19139791311981       -0.00189997658758
C           -1.97800484013644        2.39955212150804        0.00849845434478
C           -1.77987296931212       -0.04983557048238       -0.12802286102652
O           -2.96721280172106       -0.28318945840824       -0.26703654578184
N           -0.70471553720983       -0.94086562488526       -0.02266209741778
C           -1.31501102791602       -3.34413335528282       -0.11426443691486
H            3.37474812577203        1.74868688926228        1.15599492744370
H            3.55184182751897        0.96104457789261       -1.64363136181101
H            3.67833928727654        2.87400747195580       -0.25908673647570
H            2.64565061049030       -0.97058633247418        0.46416677992563
H           -1.29444566611859        3.24393008095219        0.08942924971388
H           -2.54773830278039        2.46231558775239       -0.91880293546177
H           -2.67599742273507        2.42592857079504        0.85154491701436
H           -1.32266031893646       -4.08709127845496        0.68598405415030
H           -1.09139079899288       -3.84562108911530       -1.05620041299854
H           -2.27404808815491       -2.83724756844591       -0.20861800736470
H            1.42925548411765       -3.26472279937601        0.21604977191132
