  25
        -42.13678508
 C          3.3936498084        1.5354671292       -0.0008184245
 N          2.5469002314        0.3708401469        0.0002619591
 C          2.9372684676       -0.8972815299        0.0032053918
 N          1.8706840916       -1.7143727285        0.0010705636
 C          0.7373670158       -0.9412849227       -0.0031107602
 C          1.1802550575        0.3889440330       -0.0040767914
 C          0.2168282208        1.4689786854       -0.0013560265
 O          0.4907423656        2.6532339217        0.0011114174
 N         -1.0798759991        0.9873232564       -0.0002469056
 C         -2.1599038897        1.9521780679        0.0080841419
 C         -1.4744755046       -0.3798291184       -0.0047676374
 O         -2.6546148451       -0.6484385365       -0.0068754587
 N         -0.5097999798       -1.3336794691       -0.0047873053
 C         -4.8186956092       -3.6022382713        0.0093381365
 H          4.0300241471        1.5421457954        0.8843469410
 H          4.0261912661        1.5430801709       -0.8887279907
 H          2.7622043455        2.4240759480        0.0007734496
 H          3.9599592774       -1.2238287687        0.0072943546
 H         -1.7267326522        2.9506386977        0.0270855137
 H         -2.7792432107        1.8244017109       -0.8811172789
 H         -2.7904601267        1.7939926571        0.8842308210
 H         -5.1115412712       -4.0533007649        0.9409870160
 H         -5.1184712575       -4.0533281522       -0.9163789347
 H         -4.2298836103       -2.7015956268        0.0036013769
 H          1.8817649795       -2.7248825332        0.0034081377
