72
 energy: -99.666911078192 xtb: 6.6.1 (8d0f1dd)
N           -1.67422502301087        3.00709867172229        2.25181340281320
C           -1.66861267614613        2.21940790317990        1.27196459192028
C           -2.81589041519693        2.08160041626732        0.30855811857569
C           -3.37543491380807        0.66957952703284        0.38768078023194
C           -4.31629445836118        0.23889931455793       -0.55069203528187
C           -4.86358067102345       -1.02853962524587       -0.49498409941721
O           -5.79232530005573       -1.52337600356198       -1.36154985191216
C           -6.32340391399437       -0.67292526440050       -2.34474517571574
C           -4.46014740455879       -1.92003976527337        0.52401107655486
O           -5.04795587807652       -3.14932512182208        0.49411415279815
C           -4.76779720043702       -4.05138885936217        1.53330182073153
C           -3.53068488543783       -1.49257298879260        1.45261143698378
C           -2.99898480634232       -0.20974634584694        1.38555575949829
C           -2.22778793336285        2.33883349743998       -1.10638496573995
C           -1.37146106623086        1.19607450304390       -1.69435978261424
C           -0.03138191346470        1.08382275501311       -1.06327687885408
N            0.57308603617969       -0.09599249428367       -0.66495778553128
C            1.95587529289074       -0.10264013802050       -0.27723605964287
C            2.96663157270279       -0.59727366756335       -1.36377801320738
C            4.43039633933759       -0.43648439029978       -0.96336104786243
C            5.20551556688321        0.69434669642050       -1.20946219574853
C            6.55543250262358        0.82059655049787       -0.80200537518854
C            7.26064962318524       -0.19629989378613       -0.10164697393219
O            8.63231603476359       -0.42099776118843        0.50323935513158
C            9.44066527774254        0.74697452027382        0.74687778091011
C            6.45173126774332       -1.33779769634732        0.09415486131145
O            7.15178304869841       -2.30899623292857        0.70964375889228
C            6.53180731044072       -3.51527570744478        1.01560462141594
C            5.11669069960361       -1.45725712036669       -0.30108628655367
C           -0.15002853426338       -1.33945386770897       -0.74533576111163
C           -3.98071877298203        3.07637925653837        0.58678184628282
C           -4.64027411774755        2.80476679964582        1.93845807654785
C           -3.55577953468347        4.54173240819406        0.51351200659691
H           -4.62759831642349        0.91383860318540       -1.33093258933169
H           -6.79602424628095        0.21102325353012       -1.90365736685746
H           -7.07887815380222       -1.26395417441434       -2.86066300590965
H           -5.56153820144011       -0.35589836213209       -3.06544676754958
H           -5.03747405414069       -3.63832425890141        2.51147231364957
H           -5.38265306539313       -4.92724180903523        1.33132713594790
H           -3.71268440393552       -4.34674223328915        1.54217309097105
H           -3.21174017959005       -2.14594437581327        2.24932389521272
H           -2.29555024135055        0.09837399908150        2.14329235469463
H           -3.05665938554766        2.53468733111268       -1.79030657157288
H           -1.61513283374124        3.24114641860036       -1.06776083593731
H           -1.92722374213027        0.26135349599526       -1.63308986026399
H           -1.24660670527672        1.43175005752936       -2.76449892754308
H           -0.80646683502841        1.59950044481466        0.98240147725455
H            0.59234055047222        1.95988599175561       -1.03891335488763
H            2.05488712602791       -0.73946798946093        0.60903125441488
H            2.22889563992633        0.91666730601079        0.00056242022955
H            2.73800423742134       -0.04977040376194       -2.28307266825086
H            2.74059619381647       -1.65070143937451       -1.55436954229741
H            4.72474837204990        1.50585034410074       -1.75365304875458
H            6.98014818216440        1.77386698119555       -1.10125804170187
H            9.68493610564501        1.02331711322016        1.79179953576667
H            8.69263663843805        1.41626143319074        0.36298532734730
H           10.37015585000747        0.82383945099010        0.16506962459006
H            7.31165291840839       -4.07722260491011        1.52119500700094
H            5.67622722496461       -3.36289679184015        1.68253870134664
H            6.21584916266520       -4.03837256959030        0.10678721852525
H            4.57949103030868       -2.37361144435692       -0.09884383241168
H           -0.34703195179545       -1.64635083195020       -1.77975413465040
H           -1.11190338061768       -1.25506303802174       -0.22875013965027
H            0.42991091682934       -2.12018346807074       -0.25730449071460
H           -4.73373507112178        2.90476625354947       -0.19221426467630
H           -3.92762413524975        2.98265261036904        2.73677967471833
H           -4.99303218798352        1.77820268908050        2.00080967268462
H           -5.49073843475669        3.46975600682672        2.07307055220546
H           -2.78482774170866        4.74139125968280        1.25021916775517
H           -3.18495487236797        4.80405301952691       -0.47382653549681
H           -4.41217956873013        5.17685875752478        0.73024381697828
H           -0.82667605348824        3.02432069272549        2.81567107387000
