25
 energy: 8.214887076999 xtb: 6.6.1 (8d0f1dd)
C            3.18997084251004        1.41021483838620        0.12491339494026
N            2.42104538479499        0.06796028684611        0.04105821268632
C            2.65929632697673       -1.33906743154023        0.09076762310462
N            1.45242729389553       -2.03922175939155        0.00091882069846
C            0.43657607735653       -1.15376705125567       -0.02583411035987
C            1.00540803909994        0.12118944155230       -0.00100741654613
C            0.18841589559236        1.26358598557376       -0.03644391561762
O            0.56867143027913        2.43389966597822       -0.09536161193641
N           -1.20893640338822        0.97634600358000       -0.03303330643773
C           -2.09767502285873        2.12162816757842       -0.02702657199149
C           -1.79185111740341       -0.24721181784140       -0.04682877233343
O           -2.99674872025583       -0.40442590852785       -0.05624222320372
N           -0.92729282405203       -1.36288249999145       -0.05110789249989
C           -1.56348013144999       -2.66297772299072       -0.06324967433532
H            3.67229604918069        1.64077906994896        1.08050981830361
H            3.98292681715732        1.47311693887157       -0.63920823727223
H            2.44986108515735        2.18903735919238       -0.05184399742524
H            3.58438665950874       -1.86105363590936        0.02392070320016
H           -1.47235082332774        3.00809182004153       -0.05641797902475
H           -2.73234392250372        2.06984119383096       -0.88652939304017
H           -2.66916499541902        2.12849702730317        0.88777689581619
H           -1.30335695820711       -3.23757313818415        0.82776173993761
H           -1.29283890319341       -3.22221593172147       -0.96034545760214
H           -2.64240701505934       -2.48815893682709       -0.06912567430003
H            1.33756468885911       -3.04771234663503       -0.02486599758407
