25
 energy: 37.888679732801 xtb: 6.6.1 (8d0f1dd)
C            3.41047896879151        1.96251243140316        0.24664770441509
N            2.36585289341879       -0.21905237760382       -0.06593458324654
C            2.54466908962582       -1.50476069805294        0.04564725028875
N            1.35183496786173       -2.19988383420066        0.05398584224222
C            0.37213168791979       -1.26812943564893       -0.03562016754513
C            1.00709152703124       -0.02733338067157       -0.07791344199097
C            0.21927279559370        1.17240913349893       -0.15431284754914
O            0.61195388688936        2.30862769111682       -0.29997596394791
N           -1.16134232748578        0.92352344029697       -0.05609019816035
C           -2.01523241671235        2.10130699229747       -0.00712941540602
C           -1.78741919649629       -0.28921370090464       -0.04574523041561
O           -2.99681714231176       -0.38133360102588       -0.01672768066557
N           -0.97928790110368       -1.42982100651593       -0.06826479452481
C           -1.67933703284714       -2.69274404031091       -0.06793154420636
H            3.78544136283367        2.11360858426335        1.21237873338509
H            4.02327370786736        1.92485031823284       -0.60576376547592
H            2.43857321450903        2.34369983785343        0.05414948368698
H            3.49861893070766       -2.00428051466705       -0.05474109885724
H           -1.32542592570054        2.93680290661239       -0.14657764184102
H           -2.81794880925228        2.01859253596054       -0.72052168666466
H           -2.43449290816114        2.18866085907600        0.98855273837362
H           -1.44412022345403       -3.27806753713543        0.82189048141097
H           -1.45225548487485       -3.26477546513379       -0.96738501801411
H           -2.73763983612477       -2.42426312826424       -0.06028443825642
H            1.25741063476098       -3.20187888750791        0.07471369713888
