25
 energy: 34.352984388131 xtb: 6.6.1 (8d0f1dd)
C            3.60147323275293        2.25637220314975        0.29546530496511
N            2.31765267135979       -0.33884797650885       -0.04951614239405
C            2.46760894793074       -1.61439953915048       -0.03179990184959
N            1.26939356307831       -2.30289502321810        0.00945482008926
C            0.30746099739566       -1.34532653429895       -0.04838414013418
C            0.97114490616473       -0.12369806210374       -0.08534001443180
C            0.21577310842386        1.09359764897056       -0.16871953263214
O            0.65558432771152        2.21291952595244       -0.27078103178072
N           -1.16219592390119        0.88910951327073       -0.07736049579430
C           -1.97459457780986        2.08996064843748       -0.02536385003761
C           -1.82173532982992       -0.30552733385416       -0.05530229171730
O           -3.03132138375411       -0.36040628765264       -0.01395265026767
N           -1.04597045340887       -1.46603291285159       -0.08414794743219
C           -1.77088806655051       -2.71208383799649       -0.09156674466072
H            3.96919152198363        2.43977165013312        1.26555096038076
H            4.22988952358316        2.23229160631118       -0.53621744365856
H            2.58536452433784        2.45922293230982        0.08724351578049
H            3.41842748779117       -2.10093989938350       -0.06778646895649
H           -1.31024492923895        2.90574742350143       -0.28683642545625
H           -2.81013489217273        1.99598983242015       -0.70317684636188
H           -2.31781950176699        2.23770294377008        0.99416662092030
H           -1.54190171144818       -3.31775527138166        0.79075952954025
H           -1.57263636158267       -3.28501187676900       -0.99551906265969
H           -2.82444290654880       -2.42096711034588       -0.05858533135689
H            1.16607503190508       -3.30610686323335        0.05532581567165
