  72
        -99.30525075
 N         -1.7348792264        2.5902290751        2.6125167923
 C         -1.7359815015        2.0141931858        1.5041092033
 C         -2.9068264123        1.9692176827        0.5619762532
 C         -3.4244059584        0.5417968267        0.4651138776
 C         -4.3695992496        0.2127349599       -0.5088044711
 C         -4.8798350248       -1.0695859406       -0.6184167111
 O         -5.7967676434       -1.4686726790       -1.5255302351
 C         -6.3659239953       -0.5171521016       -2.3930932910
 C         -4.4296634627       -2.0802995481        0.2725930325
 O         -4.9749931257       -3.3005488760        0.0899325181
 C         -4.6404986413       -4.3388510105        0.9806790183
 C         -3.4939070919       -1.7467444491        1.2381416194
 C         -3.0000727408       -0.4514651829        1.3331239850
 C         -2.3624876230        2.4267355654       -0.8167130269
 C         -1.4761511220        1.3877451992       -1.5259100616
 C         -0.1305326377        1.2496681999       -0.9253549423
 N          0.5058837701        0.1031544142       -0.7138978149
 C          1.9035225883        0.1034314014       -0.3540921202
 C          2.8049789428       -0.1597419902       -1.5708809612
 C          4.2490377008       -0.1077424696       -1.1451135555
 C          5.0914711428        0.8473402054       -1.6165752352
 C          6.5194098095        0.9232748626       -1.2081714243
 C          6.9460180554       -0.1514511865       -0.2686386041
 O          8.2006580438       -0.2465314404        0.1696795532
 C          9.1730501949        0.6830636819       -0.2508523237
 C          6.0238271236       -1.1056037203        0.1962807234
 O          6.5086925586       -2.0370888325        1.0536608235
 C          5.5865018018       -3.0067006799        1.4950258437
 C          4.7044013616       -1.0685867807       -0.2213141311
 C         -0.1296431095       -1.1762061813       -0.9169928997
 C         -4.0854858912        2.8888105172        0.9979486902
 C         -4.7106976747        2.4118196347        2.3067071040
 C         -3.6873923676        4.3570927043        1.1214952673
 H         -4.7213658802        0.9762946454       -1.1823805409
 H         -6.8700948055        0.2804810941       -1.8390836475
 H         -7.0987129138       -1.0630042337       -2.9840619622
 H         -5.6161330970       -0.0819720366       -3.0621114422
 H         -4.9037776711       -4.0832373676        2.0113401328
 H         -5.2270788749       -5.1978598358        0.6610307238
 H         -3.5756964310       -4.5875199644        0.9263117234
 H         -3.1467869062       -2.4886233145        1.9388290373
 H         -2.2952365568       -0.2239464860        2.1178077920
 H         -3.2061573183        2.6531745161       -1.4676769449
 H         -1.7940542235        3.3479055828       -0.6830083147
 H         -1.9958603973        0.4323009480       -1.5711329884
 H         -1.3381259621        1.7413582683       -2.5563381565
 H         -0.8505629437        1.5068944952        1.0734412883
 H          0.4455307220        2.1525302500       -0.7845878925
 H          2.0919125643       -0.6686760553        0.3962334894
 H          2.1640649168        1.0725563574        0.0769739030
 H          2.6087460451        0.5876443136       -2.3411643044
 H          2.5844972004       -1.1474547836       -1.9791484669
 H          4.7562533212        1.5917218150       -2.3240969921
 H          6.7001448758        1.9030185100       -0.7323433383
 H          8.9180137413        1.6999331841        0.0620317729
 H          9.3060805625        0.6632547100       -1.3365299018
 H         10.0997999532        0.3784564140        0.2309636348
 H          6.1400032261       -3.6740574706        2.1517664562
 H          4.7628498198       -2.5399898409        2.0438956927
 H          5.1756476676       -3.5676091187        0.6502978370
 H          7.1540800555        0.9188456084       -2.0995718633
 H         -0.3416145647       -1.3508469888       -1.9740307869
 H         -1.0676853240       -1.2281660826       -0.3585913728
 H          0.5309361980       -1.9628823339       -0.5617135692
 H         -4.8467297094        2.8098110817        0.2133165695
 H         -3.9878486233        2.4858010353        3.1126220272
 H         -5.0487503433        1.3814011147        2.2281414140
 H         -5.5668647862        3.0354436737        2.5500340289
 H         -2.9099547743        4.4752086548        1.8698306985
 H         -3.3410745760        4.7653477301        0.1756428759
 H         -4.5521121077        4.9353077949        1.4362459351
 H         -0.8750087766        2.5762268942        3.1522391757
