  25
        -42.10180052
 C          3.2384509195        1.1228865204        0.0097688284
 N          2.2480378632        0.0849777204       -0.0002839591
 C          2.4714762029       -1.2597382557       -0.0021120668
 N          1.3728128101       -1.9690163527       -0.0027055188
 C          0.3654905205       -1.0624796508       -0.0002379560
 C          0.9046546226        0.2410760546        0.0020000585
 C          0.0649672598        1.4209787292       -0.0024180740
 O          0.4583663508        2.5632836255       -0.0088439775
 N         -1.2876188079        1.0835488772       -0.0002422525
 C         -2.2479210138        2.1776296602       -0.0000646709
 C         -1.8432814321       -0.1854294659        0.0028710882
 O         -3.0295727372       -0.3635325566        0.0069630288
 N         -0.9539941740       -1.2857636506        0.0006082643
 C         -1.4899342932       -2.6210751062       -0.0024393986
 H          3.8030902534        1.0945510318        0.9441303846
 H          3.9345672964        0.9845902244       -0.8188945154
 H          2.7449530086        2.0900043499       -0.0815750585
 H          3.4577833044       -1.6819689103       -0.0033260911
 H         -1.6944998750        3.1141532532        0.0036569373
 H         -2.8819541920        2.1170864791       -0.8849310896
 H         -2.8865484292        2.1120165213        0.8810576684
 H         -1.1174119457       -3.1700047455        0.8635289387
 H         -1.1673092062       -3.1473913094       -0.9023756633
 H         -2.5761508810       -2.5575472424        0.0266180222
 H          2.5867528925       -4.9017274058       -0.0493715873
