25
 energy: 33.753742373639 xtb: 6.6.1 (8d0f1dd)
C            3.41369149830791        1.07304164003371        0.10736005880836
N            2.42151442537709        0.05399672413518        0.00620840308042
C            2.68407648732758       -1.30925745932674       -0.00621765976150
N            1.48314434981239       -1.96780367581357       -0.05265689373596
C            0.49310378606915       -1.04557521844021       -0.02538937029575
C            1.01559024901016        0.24206349179435        0.02200248833120
C            0.19623449613473        1.43393443961806        0.03948672053665
O            0.65022979209262        2.56982899714327        0.11476194677895
N           -1.36753930625685        1.22673608337698       -0.02436998616407
C           -2.70116606122268        2.26885152148331       -0.12345121214417
C           -1.78180199261247       -0.07273530311186        0.00466329103082
O           -2.95180832118696       -0.39441901363793        0.03608691626564
N           -0.85446354717678       -1.20215980492506       -0.01031373654758
C           -1.37878471778264       -2.56664248332193       -0.03359089261253
H            3.86707870101942        1.10551112107408        1.10224151057802
H            4.20300842899367        0.88676622716033       -0.62714547450948
H            2.94935186500495        2.03241714506391       -0.07848192886575
H            3.63528458992563       -1.78899387664031       -0.05494043070532
H           -2.29327605848851        3.28104525876539       -0.11983452025621
H           -3.32451146426430        2.12310487308780       -1.01828068619541
H           -3.40656825058535        2.17239369477473        0.70562768517851
H           -1.03208782869646       -3.14198507816565        0.83308062269927
H           -1.05851304735315       -3.09443132461525       -0.93922919613542
H           -2.46580806782579       -2.52095679991561       -0.01647664027413
H            1.41509418088835       -2.97284288230306       -0.11023455336464
