25
 energy: 14.550647034440 xtb: 6.6.1 (8d0f1dd)
C            3.36694766131128        1.10563484582469        0.10038226079495
N            2.38478682026376        0.07487973910995        0.01726978275645
C            2.65422730970568       -1.28914337306471       -0.00203465728565
N            1.45439842819327       -1.95506228805227       -0.05005404938303
C            0.46205489121029       -1.03739670449951       -0.01252004172170
C            0.97909528908762        0.25207927785232        0.02794463301522
C            0.14929948857930        1.43231193549677        0.04091644868122
O            0.58655702790966        2.57854327950510        0.09219514176663
N           -1.38197225734366        1.19725634228225       -0.01825525779723
C           -2.55927432044206        2.22557847168948       -0.10681258989352
C           -1.80474760638232       -0.10457063501946        0.00166826554215
O           -2.98212912026537       -0.40457299061419        0.01166587674992
N           -0.88590766992674       -1.21573746215357       -0.00278603202789
C           -1.40478530904781       -2.58257043595480       -0.04079126663130
H            3.82997863803860        1.14302131273908        1.09096149803731
H            4.15010227357129        0.93240907592704       -0.64407684978401
H            2.88083229956227        2.05624242856951       -0.08249430488637
H            3.61490154555349       -1.75200688536774       -0.01320187153340
H           -2.11693999024580        3.22439477513131       -0.09260245033767
H           -3.18190394385916        2.10549681230189       -1.00222762500838
H           -3.25764023082079        2.14407249584762        0.72978712133477
H           -1.07108428593195       -3.15711208107706        0.83058166047323
H           -1.08003101208279       -3.11432805431642       -0.94291805623037
H           -2.49158823065710       -2.52901141942073       -0.03594333070403
H            1.37423619830541       -2.96131611701089       -0.10121572641132
