  25
        -42.15178651
 C          3.1962587492        0.9580406791        0.0401312610
 N          3.3652840968       -0.3924533552        0.0138249697
 C          2.6285775316       -1.3995073989       -0.0107187320
 N          1.2467815997       -1.5626387961       -0.0203666661
 C          0.1447961885       -0.7571034545       -0.0053251206
 C         -0.0869549911        0.6402038071       -0.0099989837
 C          0.7265248262        1.7501275778       -0.0206759208
 O          0.6863585965        2.9317410944       -0.0301123584
 N         -1.4822227362        0.8201487616        0.0002004138
 C         -2.2208430617        2.0560034893        0.0044097435
 C         -2.1061056485       -0.3926452422        0.0084682156
 O         -3.2777246697       -0.6331339894        0.0200909982
 N         -1.0708619085       -1.3536886090        0.0017336442
 C         -1.3762823773       -2.7609249335        0.0038385221
 H          3.6168285159        1.3905142292        0.9513701251
 H          3.6550042869        1.4287918142       -0.8331582065
 H          2.0586815897        1.2921921285        0.0204099024
 H          3.1361371680       -2.3558852880       -0.0282075781
 H         -1.5474664919        2.9081493215        0.0367981893
 H         -2.8376276103        2.1156228272       -0.8937897220
 H         -2.8797607764        2.0791110830        0.8734786681
 H         -0.9830311149       -3.2530393479        0.8950245147
 H         -1.0067308304       -3.2510615119       -0.8986602494
 H         -2.4647043983       -2.8390698207        0.0174039274
 H          0.9783639291       -2.5414572510       -0.0382656772
