72
 energy: -99.441531034376 gnorm: 0.002461531789 xtb: 6.6.1 (8d0f1dd)
N           -2.68180146096113        3.67210158540496        1.96696729571477
C           -2.36557972801973        2.43121582194888        1.61739727041709
C           -3.18553280575187        1.97432154365414        0.45906934882807
C           -3.63692097785831        0.53102857789250        0.50123093969204
C           -4.41082609280461        0.04011601213222       -0.55318759131843
C           -4.85808194291127       -1.26904753334957       -0.57028469780765
O           -5.62553590006292       -1.81915208520455       -1.53622916798215
C           -6.11472679261701       -1.00124108690841       -2.57257819394560
C           -4.50769110919152       -2.13985009139151        0.49602900348272
O           -4.96534424179621       -3.40333951425385        0.38590758986082
C           -4.66976519801570       -4.32896404690054        1.40575918479529
C           -3.75566452477613       -1.63869137815973        1.54566655611331
C           -3.33432266910402       -0.31511800987097        1.55235591992913
C           -2.37166993083056        2.24976447849581       -0.84777062496433
C           -1.43808919362757        1.12294761368431       -1.28568545753697
C           -0.38068394663687        0.75881727451781       -0.23961498147999
N            0.59626290845402       -0.15569289419961       -0.79231114315605
C            1.97058970584354        0.02540821306257       -0.37925759910753
C            2.94639663491600       -0.30939312555166       -1.52194527707319
C            4.36422194593853       -0.06267279109365       -1.09826980467498
C            4.99697966648497        1.14041262109783       -1.37104262459674
C            6.30757960376102        1.36145539488170       -0.97599610811544
C            7.01377854205595        0.38303257403802       -0.29091939677109
O            8.29290411055620        0.48016348027545        0.12392678828182
C            9.02269314027439        1.64826061267413       -0.16966120311912
C            6.36826642753871       -0.84741071379888        0.01214738452385
O            7.12042597442426       -1.74065357146227        0.68827989330523
C            6.57837634596988       -3.00382579787083        0.98992014163843
C            5.05905762934509       -1.04539971887632       -0.39673813150110
C            0.16265389364916       -1.53189703354357       -0.77570556364365
C           -4.38929086524062        2.96735689612185        0.55085469747792
C           -5.50190266037858        2.43179372398156        1.44588277500458
C           -3.76455914381245        4.21834119930609        1.18661999746181
H           -4.67078591289132        0.70129876433197       -1.36314872337655
H           -6.70893114533033       -0.16991352282692       -2.18002333486175
H           -6.75202698044069       -1.64440174796874       -3.17586101078248
H           -5.30468890451432       -0.61023048049115       -3.19651417277472
H           -5.10007230382952       -4.02123204936606        2.36419839679674
H           -5.12561617200015       -5.26569160684672        1.09031045638968
H           -3.58985551457511       -4.47079055854558        1.51787783751007
H           -3.49768113864194       -2.27062769711954        2.37956768943071
H           -2.77699043626789        0.04237287652655        2.40385685915824
H           -3.07674550854608        2.43212482407121       -1.65897932158061
H           -1.79025746843445        3.16335390344063       -0.70976671895243
H           -2.02606002702788        0.23846999440214       -1.52973223517261
H           -0.92185394347498        1.44076792790880       -2.19345463232555
H           -1.53768843541558        1.92554520074028        2.07138451812515
H            0.12954215011172        1.67232853023483        0.07557599837355
H            2.21444701470392       -0.59657628313480        0.49666932559324
H            2.12487306504660        1.07016956356920       -0.10145368473280
H            2.69420697666636        0.31288957176742       -2.38064735188402
H            2.82768328283285       -1.35406909155195       -1.80895947756608
H            4.47166419065004        1.91372879509040       -1.91033539065523
H            6.77601206999153        2.30256188261239       -1.21426424296447
H            8.57554104406126        2.52979012282257        0.29979146441551
H            9.10196751138433        1.80996036681429       -1.24907860416210
H           10.01581720013687        1.48400236348380        0.24428311768021
H            7.36841874577392       -3.54595550088687        1.50607342928990
H            5.70759560707478       -2.92049785770110        1.64815727417641
H            6.29945174403168       -3.54740727275921        0.08202898546824
H            4.56288085057353       -1.97943273217116       -0.18459360083810
H           -0.83564666934712       -1.60696790457833       -1.20081718121919
H            0.13781413794369       -1.94384507750726        0.24586407652110
H            0.83630047559282       -2.13830770550895       -1.37776342045940
H           -4.79628551980629        3.18980334895108       -0.43527944179558
H           -5.11799386601835        2.19213226755897        2.43456621703037
H           -5.94299914089180        1.53290017673371        1.02639901833519
H           -6.28634289721952        3.17810621694743        1.54766889760120
H           -4.46711848153266        4.75967132036056        1.82212902690485
H           -3.37421691404948        4.91149084856498        0.43249524607906
H           -0.88233063388154        0.31390470703076        0.63341253109491
H           -2.19770980024865        4.20852480680479        2.66880980295114
