  72
        -99.34912807
 N         -0.4960243301        2.0840717554        2.2266369254
 C         -0.8662932550        1.4829384893        1.1952905302
 C         -2.1825432892        1.7134667563        0.5045855424
 C         -2.9603757430        0.4101530489        0.4497125270
 C         -4.0540652300        0.2846390667       -0.4088275354
 C         -4.7970848083       -0.8827147095       -0.4690316966
 O         -5.8565901965       -1.0906633307       -1.2776862492
 C         -6.3100413380       -0.0441471595       -2.1033783437
 C         -4.4498050810       -1.9778654287        0.3681592069
 O         -5.2261161176       -3.0721576194        0.2429343463
 C         -5.0082321240       -4.1693224952        1.0990918840
 C         -3.3724141961       -1.8413239082        1.2294783064
 C         -2.6383358540       -0.6627767705        1.2677950587
 C         -1.8231793201        2.2027597567       -0.9245782843
 C         -1.3405526605        1.1111650044       -1.8961960363
 C          0.0329375227        0.6214090070       -1.6108407562
 N          0.4163182620       -0.6533236744       -1.6080309230
 C          1.6939661023       -1.0580784803       -1.6088834899
 C          2.8389817129       -0.1516827210       -1.7190616996
 C          3.3225511866        0.4571452890       -0.3043163707
 C          4.2210875083        1.5881332569       -0.6111022391
 C          5.5737056890        1.4616589066       -0.5661305572
 C          6.1803468976        0.2884361868       -0.0829366518
 O          7.4901362021        0.0396232012       -0.0725777983
 C          8.3876444175        0.9734569112       -0.6323130438
 C          5.3510506219       -0.7327279466        0.5060190400
 O          6.0482108746       -1.7281910920        1.0938979938
 C          5.3434724675       -2.7795967943        1.7107218022
 C          3.9960918311       -0.6182951592        0.4621095270
 C         -0.6031350979       -1.6908594069       -1.6123391323
 C         -3.0815706130        2.7731557740        1.2090214834
 C         -3.4685909462        2.3340070932        2.6190960975
 C         -2.4519182023        4.1624893014        1.2598546348
 H         -4.3342181571        1.1184737625       -1.0308130051
 H         -6.6141788935        0.8276871471       -1.5164675234
 H         -7.1749551290       -0.4422379605       -2.6301870540
 H         -5.5488691076        0.2519555365       -2.8327977784
 H         -5.1075788742       -3.8829592618        2.1501891528
 H         -5.7806154290       -4.8934849047        0.8477605218
 H         -4.0236709353       -4.6184884493        0.9338237410
 H         -3.0976257885       -2.6481456852        1.8892113900
 H         -1.8226264054       -0.5835920082        1.9700285151
 H         -2.7047131483        2.6734502681       -1.3594506742
 H         -1.0509583000        2.9688103520       -0.8428019484
 H         -2.0658083562        0.3015607281       -1.9224912239
 H         -1.3251299977        1.5729348027       -2.8926539849
 H         -0.2391864596        0.7545295092        0.6510829276
 H          0.8068822157        1.3695549868       -1.5736207225
 H          1.8697586707       -2.1076016529       -1.4567737135
 H          2.4110599397        0.7905514252        0.1960399145
 H          2.6123937388        0.6946888947       -2.3688806781
 H          3.6965416883       -0.6835280188       -2.1285541071
 H          3.7747819846        2.5054102065       -0.9612065020
 H          6.1945029715        2.2873281868       -0.8767795576
 H          8.3840670055        1.9140932515       -0.0745625496
 H          8.1547125409        1.1694383240       -1.6829836870
 H          9.3717270151        0.5148955216       -0.5582794699
 H          6.1030353839       -3.4731927988        2.0656875881
 H          4.7545727597       -2.4203226457        2.5602633239
 H          4.6870208967       -3.2920636045        1.0003966517
 H          3.3622465583       -1.3619929808        0.9153614573
 H         -1.1132170596       -1.7129785575       -2.5752973048
 H         -1.3344285829       -1.5100210680       -0.8231472651
 H         -0.1417538322       -2.6613964259       -1.4489092978
 H         -4.0004886759        2.8367108419        0.6139388084
 H         -2.5868506629        2.2893469629        3.2506501743
 H         -3.9492679182        1.3586897655        2.6107590051
 H         -4.1629648819        3.0527058858        3.0462836779
 H         -1.5125296169        4.1285988996        1.8027861016
 H         -2.2791821437        4.5680653791        0.2667282547
 H         -3.1238649828        4.8383374915        1.7825180543
 H          0.4284685666        1.8766005657        2.5918679878
