25
 energy: 0.489719785834 xtb: 6.6.1 (8d0f1dd)
C            3.25371255204372        1.18364256291749        0.07459266827606
N            2.29946155406636        0.11681742744443        0.03814917016571
C            2.60367839787958       -1.23242958497107        0.05370332075189
N            1.40895079211690       -1.92799664955006        0.02483201125746
C            0.35699905952868       -1.06565803603405       -0.00265481662898
C            0.90055186752582        0.21205484396693        0.02961047578454
C            0.07922014034281        1.34623642154403        0.01351741215729
O            0.47330446228249        2.51883947757946        0.06548878423186
N           -1.33024215548454        1.00556856137752       -0.08666568680052
C           -2.20585343394234        2.16293086226844       -0.00304375173908
C           -1.93453220764799       -0.21577160865723       -0.31965986957871
O           -3.12428314020758       -0.37945789292579       -0.48181954133902
N           -1.00976563898633       -1.29926263177732       -0.09491474213235
C           -1.46906123348006       -2.66367921232255        0.00720241675903
H            3.74536657650678        1.23656377198497        1.05259089533307
H            4.02415067512505        1.03781607323529       -0.69119089582683
H            2.71852033541915        2.11360271583448       -0.10472335446249
H            3.59367991086462       -1.63607945301493        0.00935910065198
H           -1.61818230972482        3.08063394031277        0.04813061790399
H           -2.82096340086526        2.17701862605450       -0.89437702703388
H           -2.84346478453824        2.08222566995884        0.87571615712526
H           -1.02341699817266       -3.20344663735461        0.85701985383042
H           -1.24636996424804       -3.21382143218430       -0.90391443356300
H           -2.54547325146774       -2.60896369430330        0.13225358238603
H            1.41254209737450       -2.93360101258324        0.02386597350966
