25
 energy: 104.902385887090 xtb: 6.6.1 (8d0f1dd)
C            3.32399479510279        1.19131270704449        0.04641311477015
N            2.37765766756986        0.10460376579524        0.03899824947995
C            2.71759407806665       -1.17715269489459        0.02076688187203
N            1.60729623172054       -1.93457385058135        0.04603568169519
C            0.47084331812472       -1.09273677620525        0.10817024112846
C            1.01794803120552        0.22364631004694        0.07957620428681
C            0.26264798048142        1.48804284262357        0.10136628200564
O            0.80684571289471        2.60037178653607        0.02791457273255
N           -1.02940422996730        1.23457019691028        0.20690451217949
C           -2.01431449162491        2.24217995790482        0.17764983082468
C           -3.68432352963493       -0.91175827808257       -1.34723750070877
O           -4.48811206588496       -0.13041451046490       -1.21445759818614
N           -0.75763263389847       -1.40748314713185        0.12269355114127
C           -1.31079403860940       -2.72237547909376        0.18849790367776
H            3.81163555101104        1.26007627565885        1.02070594633627
H            4.08187863739351        1.03026169338662       -0.71996232013719
H            2.78026202365341        2.12056427152910       -0.14204955564838
H            3.71139232321335       -1.56971774034725       -0.04297523887686
H           -1.61256825469316        3.26575355745216        0.20353041333990
H           -2.62793992717277        2.14950338880913       -0.72821651729493
H           -2.68494159784043        2.09453295366627        1.03162858506232
H           -0.81321940199061       -3.40583325293909        0.88574499760450
H           -1.29481317197541       -3.17377707271204       -0.80934761446384
H           -2.34852947756258       -2.59985265727223        0.50809005132943
H            1.61476146290303       -2.93970129777681        0.05410777564325
