25
 energy: 105.580930871448 xtb: 6.6.1 (8d0f1dd)
C            3.27638543573800        1.16749104497805        0.05316930695857
N            2.30295046472824        0.10152279478240        0.02834202815083
C            2.65693589748817       -1.16984951658417       -0.00695088556163
N            1.56784765401239       -1.94911688301568        0.03334115363371
C            0.40423873764731       -1.12054225677771        0.13460798847287
C            0.94313043837431        0.20283392190569        0.10712724752774
C            0.14623453070081        1.44282514810392        0.10386770544071
O            0.71922667962839        2.54037154860466        0.10023851762728
N           -1.16588800511151        1.20996466070597        0.04784043037167
C           -2.07838111175157        2.28799951981950        0.17977835123096
C           -3.01596204222974       -0.51693061923037       -1.59165552428824
O           -4.08804729911572       -0.18739317153850       -1.45628228043660
N           -0.80297142852939       -1.46336001851062        0.30361269262591
C           -1.32329423431515       -2.77535365813964        0.23095084863603
H            3.76286927655155        1.21323511844496        1.02899684404359
H            4.03976325572230        0.99349511853670       -0.70461012808096
H            2.76948352392333        2.11744209644335       -0.11661995919959
H            3.66999613774569       -1.52734753752762       -0.02663455559883
H           -1.56116499956740        3.23948829801506        0.26082904744131
H           -2.75041275047997        2.29684723466812       -0.68039356979114
H           -2.68611811628307        2.10553804657136        1.07104522535481
H           -0.71095650767609       -3.48261503771589        0.79679440806419
H           -1.41728909797710       -3.14184181052777       -0.79806396977372
H           -2.29523037485272       -2.69990650771584        0.69715260589397
H            1.57325932393044       -2.95710853540647        0.02488097324014
