25
 energy: 20.734445500275 xtb: 6.6.1 (8d0f1dd)
C            3.26334378819820        1.18465457843912        0.07951921298047
N            2.27964970686433        0.13104702022783        0.06011287793506
C            2.59499022143088       -1.20601413317022        0.09450894946661
N            1.42182050375085       -1.93235401460480        0.02011556044453
C            0.34241942794487       -1.08541541343810       -0.03195617880933
C            0.88407518791759        0.19300800983729        0.00044481080926
C            0.04089065003280        1.32692002613548       -0.03709771146188
O            0.47406600141058        2.48035400863010        0.06918007727390
N           -1.37609937248294        0.98881143656604       -0.16477355943870
C           -2.19421803950565        2.17951895974460        0.03569315922049
C           -2.02757254097791       -0.21667912071402       -0.58015932559617
O           -3.19054465288487       -0.36788908664217       -0.87600331726282
N           -1.02088069400385       -1.32461578401947       -0.09188386676636
C           -1.45160602358742       -2.68945985598316        0.07232799517263
H            3.77249562811313        1.24618804382291        1.04777762424249
H            4.03733344724608        1.01709340715676       -0.68070458854838
H            2.74668729607175        2.12332473874956       -0.11144579404739
H            3.59240315971276       -1.58416826453990        0.00265528911935
H           -1.57602174465387        3.07790131846923        0.11569683254786
H           -2.82778368564973        2.26275149720272       -0.83530807134112
H           -2.80484393356690        2.08193353965551        0.93110348835395
H           -0.87467930247655       -3.20560675635413        0.86202245621764
H           -1.35215052784341       -3.25676058633807       -0.85157309952804
H           -2.50625431136248       -2.66159303556971        0.33739675091689
H            1.47234897816662       -2.93657350130789        0.04314434971433
