25
 energy: 5.326042900758 xtb: 6.6.1 (8d0f1dd)
C            3.25994067030533        1.18681036729286        0.07296101760584
N            2.29598942695920        0.12593581329412        0.04183997471066
C            2.60212104443384       -1.22250960792784        0.06853391130240
N            1.41351887304117       -1.92686145036596        0.01193837787547
C            0.35239257345313       -1.07054430783341       -0.02333003497675
C            0.89529977065308        0.20726166978867        0.01392344579522
C            0.06411887937125        1.33562854782046       -0.01147984038419
O            0.46414163610496        2.50481243955882        0.05791108329702
N           -1.35187590207070        0.99187959726631       -0.11773523426668
C           -2.20312392527527        2.16567704411492        0.00915904097969
C           -1.96589975054503       -0.22306032057730       -0.41147967139173
O           -3.14896656047639       -0.38114174090297       -0.61579902886312
N           -1.01488612726404       -1.30829726768320       -0.11358650513611
C           -1.46354673696106       -2.67217157792117        0.02691851467560
H            3.75502138842180        1.23993713406840        1.04942764101489
H            4.03202582528184        1.03275134936807       -0.69136968222333
H            2.72915985262587        2.11859736831634       -0.10826856534525
H            3.59619270861940       -1.61903060289606        0.00701765316567
H           -1.60394627327020        3.07694888310700        0.07012405300262
H           -2.82489194920357        2.20511991985343       -0.87492462304287
H           -2.83062665046737        2.08117200675382        0.89452784678751
H           -0.97347794021354       -3.20222631239718        0.86152862506674
H           -1.28257454359858       -3.23103104638671       -0.88781457940577
H           -2.53423020803789       -2.62570711829497        0.20060364968373
H            1.43282706129733       -2.93260187493461        0.02684312068972
