25
 energy: -42.161869525213 gnorm: 0.002957299963 xtb: 6.6.1 (8d0f1dd)
C            3.61398374125550        0.87191721102844        0.07978384760102
N            2.51403552311650       -0.05147462921971        0.01799326105761
C            2.59445395000121       -1.38893117815429       -0.02841553049857
N            1.33634712803715       -1.91487347682651       -0.06007771480145
C            0.44581277029568       -0.88555919807093       -0.03153034298271
C            1.18348842424666        0.29501142558436        0.01807470893537
C            0.55530881977140        1.59465330186494        0.04193733178701
O            1.07676700817141        2.68445222017240        0.06624468483822
N           -0.84234566054164        1.45130475072871        0.02870976376623
C           -3.71834158114082        1.26616440892833        0.03656048311475
C           -1.57432124127760        0.28651619115886       -0.00537478126457
O           -2.86414568618502        0.24670213995906        0.00272227982146
N           -0.90975241114593       -0.93806422159491       -0.04820135822384
C           -1.61751176920419       -2.20052005200202       -0.09406355630301
H            4.12937886364970        0.78529715833221        1.03756786756647
H            4.32414918584067        0.66806033776951       -0.72116712128708
H            3.22475845630460        1.88391757425162       -0.02303976495164
H            3.49859757494613       -1.95878127754924       -0.04085276901562
H           -1.36382293508477        2.31985429941936        0.04275438555563
H           -4.74674011693170        0.97199083186693        0.04783592916942
H           -3.41194665545041        2.29202702219346        0.08139833529937
H           -1.37679249621336       -2.80014145682130        0.78540012675897
H           -1.34948115546716       -2.74882095273608       -0.99868892684078
H           -2.68713031178926       -2.01279313868406       -0.10520404184397
H            1.12568208890752       -2.89967074997489       -0.09919547935410
