  25
        -42.11835718
 C          3.0988562868        0.9879085760        0.1925063573
 N          1.9925389731        0.0622592417        0.1571963228
 C          2.1337974722       -1.2386397249        0.3733077345
 N          0.9423157090       -1.8325218519        0.2593803856
 C          0.0002841393       -0.8738309504       -0.0343629416
 C          0.6662605359        0.3447096627       -0.0901437702
 C          0.1841963813        1.7679180955       -0.2766819664
 O          0.9938653465        2.6691329466       -0.5097604137
 N         -1.1159867037        1.8889575849       -0.1302977763
 C         -1.7512058233        3.1551902946       -0.1726199941
 C         -1.8135631207       -2.2655328416        0.4602169209
 O         -1.7292943171       -3.1748662096        1.1912008652
 N         -1.3436766729       -1.2696466666       -0.2096637576
 C         -2.1781062058       -0.5666810159       -1.1814087285
 H          3.5883868474        0.9454425136        1.1645594072
 H          3.8204640308        0.7297452335       -0.5822231619
 H          2.7250271176        1.9963617393        0.0064173331
 H          3.0568694016       -1.7346574602        0.6030429807
 H         -1.0465753576        3.9667463086       -0.3805125502
 H         -2.5313333312        3.1429793460       -0.9383088925
 H         -2.2355418412        3.3372665220        0.7908862454
 H         -1.8280531579       -0.7820210952       -2.1902353630
 H         -2.0917332490        0.5077673846       -0.9782630923
 H         -3.2099591300       -0.8904840059       -1.0736493618
 H          0.7650781643       -2.8199527368        0.3859335396
