25
 energy: -42.448810335465 xtb: 6.6.1 (8d0f1dd)
C            3.29997793410697        1.27528680744242        0.14398648396511
N            2.40014632986855        0.15623946890859        0.08150082435786
C            2.72607876577094       -1.14185138517867        0.07075743136369
N            1.60604556571216       -1.89986800220212        0.02810872619747
C            0.50921013120830       -1.06371189165410       -0.00440452166606
C            1.01598289007382        0.25675145179252        0.03513303696775
C            0.18131678263949        1.39297953254831        0.00409440206211
O            0.54937869810534        2.57136272537606        0.02426903212525
N           -1.17520329537638        1.03042672757745       -0.07635935836526
C           -2.16119149562012        2.09186892856951       -0.14897979036119
C           -1.69994129759994       -0.22382882478551       -0.13509485682539
O           -2.88851266723305       -0.41918600649522       -0.24117223628291
N           -0.80109209920385       -1.33975118474947       -0.08083951929664
C           -1.40939314707658       -2.53233601990897       -0.22012613018727
H            3.87503901973725        1.26071855676380        1.07720747064833
H            3.99674327534134        1.25487223283193       -0.69913743107278
H            2.70180731605477        2.18858252098848        0.11086462664128
H            3.72387367975996       -1.52739684955955        0.11714503982076
H           -1.61779703730836        3.03119062067379       -0.09165299222150
H           -2.72185817632266        2.02034680656746       -1.08133335048951
H           -2.86009422599621        1.99945894288688        0.68108475257425
H           -0.83719529265691       -3.40087508323236       -0.18336443781050
H           -2.43965660410743       -2.55746648692387       -0.52352829272051
H           -3.70234840717428       -3.45774407876590        0.55509368104265
H            1.58966233643575       -2.90846108736156        0.01849446284438
