  72
        -99.28091223
 N         -1.8536790920        2.9032881129        2.4414505332
 C         -1.8315459203        2.1757876096        1.4243603199
 C         -2.9605890633        2.0475374161        0.4400231903
 C         -3.4613240313        0.6117132360        0.4253813692
 C         -4.3482712206        0.1967559473       -0.5705911680
 C         -4.8485705131       -1.0932414749       -0.6030194413
 O         -5.7159480667       -1.5702632843       -1.5245452949
 C         -6.2655768893       -0.6844187712       -2.4702596444
 C         -4.4464465564       -2.0243044914        0.3894686442
 O         -4.9763564671       -3.2626037000        0.2751317551
 C         -4.7042634629       -4.2137783270        1.2764332888
 C         -3.5704509417       -1.6066085862        1.3771150729
 C         -3.0878182737       -0.3032281792        1.3956025466
 C         -2.3553648843        2.4170050765       -0.9405449220
 C         -1.4506228634        1.3346199583       -1.5568709758
 C         -0.1456650819        1.1928837313       -0.8741972792
 N          0.4416260453        0.0306810595       -0.5617629785
 C          1.8180723172        0.0133457344       -0.1348169394
 C          2.7834752522       -0.2314780898       -1.3144769251
 C          4.2081041349       -0.1211679863       -0.8545672317
 C          4.8145901467        1.1267222843       -0.7636302761
 C          6.1210636666        1.2378032553       -0.3207471155
 C          6.8143949165        0.0992736835        0.0445183235
 O          8.1571095162        0.1740892806        0.5172596602
 C          9.1873085285       -0.0368237813       -0.5590536525
 C          6.2297361740       -1.1754339292       -0.0322563679
 O          7.0083530998       -2.2075632418        0.3495140739
 C          6.4891373672       -3.5186771405        0.2898792675
 C          4.9147770647       -1.2617228964       -0.4831237852
 C         -0.2187214337       -1.2352296421       -0.7684814849
 C         -4.1687283357        2.9778092943        0.7533384100
 C         -4.8186323698        2.6174276594        2.0873457646
 C         -3.8076319160        4.4608212166        0.7409390983
 H         -4.6617049213        0.9003134070       -1.3238975909
 H         -6.7846576214        0.1483902001       -1.9860886395
 H         -6.9827730506       -1.2730636502       -3.0390022431
 H         -5.5010294680       -0.2940760369       -3.1504027139
 H         -5.0333991057       -3.8660841854        2.2603096914
 H         -5.2713989762       -5.1001765997        0.9990305885
 H         -3.6388994678       -4.4640764150        1.3154307450
 H         -3.2635308178       -2.2858986917        2.1558707268
 H         -2.4329564558       -0.0064227091        2.2002944186
 H         -3.1699858482        2.6120476327       -1.6374696713
 H         -1.7835033774        3.3399113425       -0.8356660870
 H         -1.9869523639        0.3882565207       -1.5920585256
 H         -1.2539574563        1.6447849390       -2.5923372961
 H         -0.9504838472        1.5851902056        1.1091471224
 H          0.4508714392        2.0819865767       -0.7400277146
 H          1.9528107192       -0.7701892875        0.6152517602
 H          2.0628822592        0.9725553306        0.3273013846
 H          2.5832856693        0.5163114854       -2.0838347343
 H          2.5965976819       -1.2191187721       -1.7366862413
 H          4.2748222485        2.0133473715       -1.0550931165
 H          6.6008143875        2.2031412345       -0.2654461809
 H          8.3225076543        1.0728091203        0.8542768290
 H          9.0512546722       -1.0297316496       -0.9638707233
 H         10.1507420006        0.1221183874       -0.0931759719
 H          7.2907701958       -4.1643975316        0.6425112739
 H          5.6192762093       -3.6319443249        0.9428089207
 H          6.2239821916       -3.7957611640       -0.7339767550
 H          4.4361496161       -2.2245417649       -0.5606729442
 H         -0.3729580644       -1.4364260913       -1.8313568739
 H         -1.1890275913       -1.2440948140       -0.2658446849
 H          0.3930276545       -2.0309254781       -0.3509329209
 H         -4.9070478274        2.8023574393       -0.0377291608
 H         -4.1288592817        2.8136852236        2.9016765000
 H         -5.1073176582        1.5694459118        2.1127971151
 H         -5.7100141823        3.2218074551        2.2338053859
 H         -3.0471811034        4.6681437995        1.4870624066
 H         -3.4529796798        4.7843570030       -0.2340833191
 H         -4.6919259795        5.0444174285        0.9835925498
 H         -1.0149827621        2.9309693886        3.0138351842
