72
 energy: -99.292109587235 gnorm: 0.007992036129 xtb: 6.6.1 (8d0f1dd)
N           -2.06756607157710        2.86076780221369        2.28418174169282
C           -1.99042284748148        2.10331038889194        1.29366060396164
C           -3.08398338871285        1.90075419734792        0.28182857162186
C           -3.58735016557027        0.46726067018621        0.35776266730149
C           -4.44475844025262       -0.01851879483409       -0.63179854330105
C           -4.94535665458595       -1.30842056221792       -0.58661101526008
O           -5.78258652155484       -1.85178152683841       -1.49593314388178
C           -6.28792203273345       -1.04565130595816       -2.53372417758511
C           -4.57460777918601       -2.16568956100580        0.48371270976224
O           -5.10470011050746       -3.40558433719719        0.44364272453118
C           -4.84937931526780       -4.29360193413210        1.50634026597358
C           -3.72541129827341       -1.67728466308084        1.46325594546446
C           -3.24097213403700       -0.37640365299664        1.40098184140363
C           -2.43409370013836        2.16040582085493       -1.10266072656287
C           -1.49444948925077        1.04094517482280       -1.58517924208717
C           -0.20107169189656        1.00489357712904       -0.86772896211882
N            0.41173252809688       -0.09235559632977       -0.42615370981974
C            1.79052134213042       -0.03004941211505       -0.00668390492000
C            2.74644509235353       -0.50713367809863       -1.12382029130513
C            4.16109110111283       -0.16381138519385       -0.78147972644202
C            6.47749512700495        2.63252803733647       -1.11978907319940
C            6.64974962010301        1.50948738513766       -0.70727773283144
C            7.15013703723242        0.30826240300690       -0.17976371977212
O            8.45329831798676        0.25696731484692        0.18449130698291
C            9.26904873523599        1.37940164883025       -0.05684190722756
C            6.42382466532537       -0.86094714481390        0.00947907225885
O            7.18664479998709       -1.84625709076655        0.55400867679796
C            6.69254851916603       -3.14740432677465        0.77013067221941
C            5.04770009897272       -1.06767115293204       -0.33332454443219
C           -0.20279215444867       -1.39479023151871       -0.50731729727464
C           -4.29766584555921        2.85476558368826        0.48522637707826
C           -5.00905087278242        2.57694915141567        1.80733577379592
C           -3.92085954178258        4.33147481468281        0.40187781921288
H           -4.73525172446485        0.62818386063562       -1.44289648077708
H           -6.83047697722740       -0.18019118490450       -2.14142629829473
H           -6.97644077868825       -1.68090207621445       -3.08742583714566
H           -5.49224463022153       -0.70649072227008       -3.20527939030728
H           -5.20761438070945       -3.89227924055712        2.45902788754890
H           -5.40066343845628       -5.20084063675651        1.26706602917128
H           -3.78316438629027       -4.52874073826854        1.58657337581514
H           -3.44199636936555       -2.29872809648245        2.29717780936493
H           -2.60729987499847       -0.02247751367715        2.19944200770955
H           -3.22498799309009        2.28120979488600       -1.84227721378979
H           -1.87802574440956        3.09776394453983       -1.06051273589626
H           -2.00954506030422        0.08305769080757       -1.53636480307894
H           -1.27537658475530        1.24836974923109       -2.64122639481378
H           -1.08136799516236        1.53117811710495        1.02732926863600
H            0.36117679438327        1.92471045230797       -0.80997840353658
H            1.92870069745061       -0.65193967783931        0.88099570417927
H            2.03814218483667        1.00042957558396        0.25440228090487
H            2.46443824204889        0.00338981688975       -2.05169260248229
H            2.63210001518225       -1.58453297290705       -1.26995373018478
H            6.23718747299989        3.57737300694674       -1.50825170432050
H            4.42556113127340        0.87660327115891       -0.87485354278885
H            8.91807273598044        2.25459147008892        0.49741052331615
H            9.30091095203282        1.62543869426796       -1.12240461254442
H           10.26238832728228        1.10222965764585        0.28546036421298
H            7.54221859616635       -3.69824537718194        1.17644278107235
H            5.87390186090096       -3.16271424135886        1.49894445014952
H            6.37066364657711       -3.62515313197909       -0.15985453267114
H            4.70001806994649       -2.08764587692584       -0.24093258058488
H           -0.31693039933187       -1.71630172110136       -1.54488361297660
H           -1.18716575015232       -1.38115659894432       -0.03470414353062
H            0.42101241493540       -2.11636820478274        0.01358362062293
H           -5.00156632626688        2.63847483721562       -0.32675553226923
H           -4.34953814095003        2.80254673707064        2.63902176059588
H           -5.32034132042447        1.53732076018654        1.87469910839846
H           -5.89272694266776        3.20466999840493        1.88514047205259
H           -3.19361753365372        4.57826140183754        1.16905876693756
H           -3.51827508845875        4.59348459214974       -0.57304812863106
H           -4.80850818036854        4.93597093517725        0.56834062127366
H           -1.25208885369174        2.93877155688308        2.88404123934033
