25
 energy: 0.000000000000 xtb: 6.6.1 (8d0f1dd)
C            3.23720132972391        1.16630909158653        0.08434468864950
N            2.29877796055224        0.07527476373246        0.03981602671198
C            2.58028186251803       -1.21425391179017        0.03006175752192
N            1.43813944744728       -1.93419254010258        0.00098261751768
C            0.39035684826767       -1.05887462812143       -0.00790371763344
C            0.93510047688824        0.21347817468824        0.01709077332874
C            0.09450143016486        1.40504290868848       -0.00410946993748
O            0.49712746915594        2.54126690785742       -0.00342325656480
N           -1.25076628431515        1.06271869620815       -0.03085477937476
C           -2.21907191394203        2.15522079838987       -0.05001256521996
C           -1.81739470187490       -0.20012724136556       -0.04692818139228
O           -2.99983858926755       -0.37846413507442       -0.07008877579474
N           -0.92618577614240       -1.30210203518959       -0.03682761236648
C           -1.46982251276835       -2.64643077634382       -0.06029819901142
H            3.71247229913541        1.21471443890471        1.06488839270555
H            4.00791460421487        1.03430799217987       -0.67357688121503
H            2.69909982127087        2.09770098766290       -0.09130154035862
H            3.56654087521359       -1.63682977417947        0.04233139674524
H           -1.67107945562430        3.09322822573871       -0.02552706696334
H           -2.82428927394145        2.09428605349656       -0.95318074103337
H           -2.87644002486466        2.07745706351925        0.81450059976605
H           -1.17061985538665       -3.19584861009707        0.83242224714061
H           -1.14560246782873       -3.17511580834413       -0.95688266944647
H           -2.55549768731684       -2.55659960601237       -0.07459039105944
H            1.38130842369251       -2.94313824728853       -0.01389874052104
25
 energy: -0.882896882088 xtb: 6.6.1 (8d0f1dd)
C            3.23979985932321        1.18426572395663        0.08599446471366
N            2.30279361362879        0.08762060067603        0.03765651366296
C            2.58049205539747       -1.25461766395964        0.02988509292324
N            1.40781139699661       -2.00152904757702        0.00000263424272
C            0.40193765287017       -1.06617894068321       -0.00862761352793
C            0.93013157904338        0.22209529998194        0.01514306184358
C            0.10181252126631        1.40799202072829       -0.00435174821007
O            0.49381951123021        2.57631795883850       -0.00219258661103
N           -1.26035617740173        1.06645568274978       -0.03121627152728
C           -2.23038235773677        2.15765443927295       -0.05012448871158
C           -1.81575838783428       -0.18777913533180       -0.04783322769323
O           -3.01119653425348       -0.37355832099046       -0.07129847506393
N           -0.92649829643736       -1.28855956886079       -0.03723320773409
C           -1.44498614006726       -2.63225891076597       -0.05962974531600
H            3.72502962277415        1.24200825946988        1.06479749159022
H            4.01165842088862        1.06310520207925       -0.67585645769186
H            2.70727301069552        2.12121332108862       -0.08616444936662
H            3.56662409103611       -1.65351805222603        0.04365330174676
H           -1.68442813390723        3.09836520839370       -0.02575565060618
H           -2.83799963237864        2.09873818384183       -0.95305695012413
H           -2.88999247777859        2.08162462223404        0.81405163013511
H           -1.12177345652867       -3.17172107207740        0.83265630043576
H           -1.09724098049650       -3.15185588724049       -0.95454456246937
H           -2.53000834814181       -2.55772231749789       -0.07387679476755
H            1.29365189278427       -3.07912881735674       -0.01504434967863
25
 energy: 9.820422106680 xtb: 6.6.1 (8d0f1dd)
C            3.24200224790103        1.19247250487291        0.08693043769384
N            2.30549695281531        0.09001433067036        0.03461114278982
C            2.57240793138906       -1.29044595461847        0.03060797784742
N            1.37418492740697       -2.06304762920200       -0.00052876018333
C            0.41261328937477       -1.07076272278338       -0.00929768550496
C            0.92638426065595        0.22520040444462        0.01288825610866
C            0.10822625640032        1.40363101306220       -0.00437706846603
O            0.48067089766426        2.58599258299689       -0.00008780777539
N           -1.27134691626894        1.07601393024224       -0.03177312659324
C           -2.24186665298246        2.16602766549137       -0.05036008062078
C           -1.81097864228203       -0.17146574392025       -0.04877043125930
O           -3.01011093862810       -0.36929625317704       -0.07297753689749
N           -0.92566278489356       -1.26552306727393       -0.03759375961334
C           -1.41218828982047       -2.61402063640782       -0.05875436493309
H            3.73606555790149        1.26396798616409        1.06310809821092
H            4.01509978801606        1.09185456348813       -0.67932693844385
H            2.71021265054859        2.13387593845409       -0.07978661720736
H            3.56487462758396       -1.65703658673351        0.04589763431747
H           -1.70077506338264        3.11028370846291       -0.02608102284189
H           -2.85224671377997        2.10550736810865       -0.95230502310685
H           -2.90383983224824        2.08804589571102        0.81281576397355
H           -1.06312406093847       -3.14168596395733        0.83325630510104
H           -1.03914829939669       -3.12305426072146       -0.95189487674840
H           -2.49727749440344       -2.56796468356913       -0.07305196450788
H            1.19254060633967       -3.20955560106117       -0.01611463914498
25
 energy: 18.508279397434 xtb: 6.6.1 (8d0f1dd)
C            3.24272160652816        1.19518958613921        0.08712570844626
N            2.30725715084326        0.09052561057104        0.03302531347468
C            2.56721140011283       -1.30261166294500        0.03180448793580
N            1.35948832062032       -2.08772974119381       -0.00058345476939
C            0.41661956518766       -1.07454881596526       -0.00947512276334
C            0.92560906509657        0.22376171774999        0.01198676658868
C            0.11099484285084        1.40234480071263       -0.00406744604510
O            0.47345896016001        2.58538486141852        0.00125962506514
N           -1.27659412927153        1.08436825782506       -0.03221810972606
C           -2.24663613248497        2.17334159996882       -0.05065154828255
C           -1.81021109474402       -0.16415634305494       -0.04938116759047
O           -3.00891444168220       -0.36941580619671       -0.07422088541267
N           -0.92562401520918       -1.25284790114321       -0.03775168312643
C           -1.39632092130740       -2.60582110549741       -0.05814105357263
H            3.74009719390088        1.27002182831620        1.06168071088901
H            4.01488875725266        1.10423710204781       -0.68167274191991
H            2.70882528505780        2.13745326024101       -0.07614428355488
H            3.56681912018592       -1.65005763847268        0.04724083102194
H           -1.70890580792010        3.11921193510986       -0.02639718055312
H           -2.85782768949056        2.11066688851642       -0.95217387685375
H           -2.90915040173533        2.09310118769650        0.81220370532702
H           -1.03518463356333       -3.12477235307907        0.83460733341709
H           -1.01134845109850       -3.10703995145110       -0.95105999404278
H           -2.48119903477933       -2.57867692290573       -0.07252519484276
H            1.14613979046198       -3.28290160566414       -0.01743682691524
25
 energy: 24.041547378747 xtb: 6.6.1 (8d0f1dd)
C            3.24362321927572        1.19810728699308        0.08728293158124
N            2.30895353549371        0.09333990601488        0.03230789025120
C            2.56672500852201       -1.30165627511496        0.03311905412324
N            1.35729022064440       -2.09235882469094       -0.00039879102394
C            0.41853746954827       -1.07721221233129       -0.00960224700758
C            0.92620558850111        0.22231902210074        0.01156087692628
C            0.11214249101645        1.40292781496806       -0.00405013144279
O            0.47048189276082        2.58403781458590        0.00183281483637
N           -1.27776537796656        1.08822252975543       -0.03253832861532
C           -2.24770488733558        2.17588998209732       -0.05077354430939
C           -1.81047335793424       -0.16280966223377       -0.04961964176731
O           -3.00825796540078       -0.37072579563532       -0.07457336607298
N           -0.92547141449019       -1.24807154627957       -0.03786809859293
C           -1.39372506340872       -2.60305624314159       -0.05793393647077
H            3.74161285696402        1.27190098144745        1.06124001467622
H            4.01474636392307        1.10858124457019       -0.68228577671859
H            2.70905431562501        2.14037511120422       -0.07501604185507
H            3.57021634291468       -1.63952347354579        0.04736399224798
H           -1.71143122486527        3.12220773170647       -0.02655854343312
H           -2.85896142602958        2.11227804962703       -0.95224808397237
H           -2.91005334032331        2.09471462691292        0.81221686224442
H           -1.03096664004456       -3.11880061775727        0.83520417049984
H           -1.00715719733358       -3.10140036499487       -0.95100914066668
H           -2.47782092241832       -2.58139123735583       -0.07232533242435
H            1.13241381733389       -3.32886706015849       -0.01829369081897
25
 energy: 32.367337432462 xtb: 6.6.1 (8d0f1dd)
C            3.24532575828689        1.20257481670521        0.08748611990429
N            2.31086710071744        0.09934519628486        0.03160749812357
C            2.56789214064484       -1.29343804708710        0.03586620772406
N            1.35966381340326       -2.08614843901356        0.00017516741169
C            0.41989756689194       -1.07836056650933       -0.00981675119423
C            0.92710658721154        0.22232290195262        0.01119732527020
C            0.11253591168082        1.40595377776128       -0.00418295161182
O            0.46809095070353        2.58411006595132        0.00232074221541
N           -1.27765057473740        1.09172816080184       -0.03291950461928
C           -2.24825773713282        2.17709201212553       -0.05086737073552
C           -1.81128187194180       -0.16287809268382       -0.04967773298428
O           -3.00779633151119       -0.37127935192859       -0.07446581077800
N           -0.92510749963977       -1.24380705865169       -0.03803537926005
C           -1.39438851796288       -2.60128239896752       -0.05787524812736
H            3.74278200407886        1.27375695834386        1.06134708843800
H            4.01549638012223        1.11098371630449       -0.68218014338799
H            2.71150066927809        2.14490650550271       -0.07492062616881
H            3.57390849368229       -1.62492209267791        0.04603215658897
H           -1.71372651580676        3.12406493186157       -0.02667593838054
H           -2.85949480005684        2.11280670039550       -0.95233894459279
H           -2.91031434283437        2.09521802040226        0.81235518284245
H           -1.03197215200947       -3.11525632181237        0.83534808663853
H           -1.00822694945482       -3.09802422254296       -0.95102164188358
H           -2.47784565583803       -2.58127826359516       -0.07223908293118
H            1.12320987719688       -3.39916012017901       -0.01948453630715
25
 energy: 39.115773323285 xtb: 6.6.1 (8d0f1dd)
C            3.24758811009967        1.20991135250704        0.08755699120409
N            2.31296573464657        0.10853370751035        0.03089133999120
C            2.56798832617668       -1.28329257469907        0.04040959449001
N            1.36156791139470       -2.07954238608464        0.00175653242883
C            0.42345358358902       -1.07785262931707       -0.00979459453582
C            0.92786603737706        0.22568683048220        0.01103072133458
C            0.11329983822047        1.41089533981068       -0.00413288307470
O            0.46363676973512        2.58696804996201        0.00278287085887
N           -1.27798627903982        1.09697596699768       -0.03330167498483
C           -2.24984591148865        2.17911250398817       -0.05100553949306
C           -1.81055813940044       -0.16173206291713       -0.04971348607092
O           -3.00586406875225       -0.37140217855487       -0.07439696252915
N           -0.92342097348890       -1.23643945099250       -0.03823010525801
C           -1.39212007688900       -2.59724120899248       -0.05778057220614
H            3.74449788426079        1.27848649417781        1.06138113717045
H            4.01687410688479        1.11624073780993       -0.68228331458496
H            2.71500530606716        2.15283242692159       -0.07491468045826
H            3.57741265278111       -1.60581898745864        0.04384613711044
H           -1.71794622624756        3.12731251358845       -0.02681202519569
H           -2.86109142607772        2.11347143504288       -0.95247865972496
H           -2.91168079398078        2.09581844743118        0.81240244165320
H           -1.02834103681248       -3.10911910093128        0.83510401045557
H           -1.00456935249815       -3.09216660551585       -0.95045180507308
H           -2.47507171637803       -2.58081757170745       -0.07218568359367
H            1.09855404479305       -3.51779226031496       -0.02264587771943
25
 energy: 33.660324118901 xtb: 6.6.1 (8d0f1dd)
C            3.25367970470902        1.22686355990426        0.08782968198056
N            2.31791360581269        0.13222313324372        0.02980354223628
C            2.56139558893324       -1.25017763675209        0.04703821645176
N            1.36906638555849       -2.04990754043317        0.00565988292168
C            0.43508660822965       -1.07045473602421       -0.00971355762062
C            0.93168310022683        0.23936732864279        0.01068645129401
C            0.11592157902258        1.42645374175225       -0.00378576711546
O            0.45037110386322        2.59262494939472        0.00340344261545
N           -1.27697726915013        1.11210016300340       -0.03399274869167
C           -2.25267593184498        2.18408313073899       -0.05126696650281
C           -1.80650889633231       -0.16120519315345       -0.04968854845758
O           -2.99809191011740       -0.37319031255691       -0.07441667118571
N           -0.91683036566387       -1.21659864280328       -0.03841376487118
C           -1.38524818303053       -2.58799805599365       -0.05742226025972
H            3.74756180906414        1.28605874558788        1.06127655080520
H            4.01862269367234        1.12623631466649       -0.68295296855421
H            2.72103572990687        2.16919186850376       -0.07443262708415
H            3.57889862299498       -1.55900606590516        0.04133148265274
H           -1.72637383117553        3.13414508078529       -0.02706529382716
H           -2.86363040286784        2.11412813110664       -0.95278636553504
H           -2.91388835739348        2.09643838880303        0.81250625362795
H           -1.01751700625888       -3.09595704483106        0.83259791587338
H           -0.99380873943222       -3.07950307595570       -0.94711827364981
H           -2.46671973239682       -2.58315223815207       -0.07195095789469
H            1.02924839864242       -3.82373520482849       -0.03009273701458
25
 energy: 28.367086308457 xtb: 6.6.1 (8d0f1dd)
C            3.25618358106716        1.24036126852024        0.08835852883239
N            2.31563437312371        0.14972759039030        0.03135626472253
C            2.54560314228707       -1.21426544904322        0.04580172274883
N            1.38656319507260       -2.01228968195032        0.00756306773312
C            0.44674655309127       -1.05564930819526       -0.00897962492901
C            0.93537118327654        0.25854201813020        0.01055361522736
C            0.11404748637550        1.44730068472839       -0.00421427295285
O            0.43926473556791        2.60377118532505        0.00422380795081
N           -1.27185275476317        1.12600857897282       -0.03456314602853
C           -2.25438884562323        2.18823732763261       -0.05151133431114
C           -1.79933574133647       -0.16287010008988       -0.04963569283550
O           -2.98859005917706       -0.37105387350329       -0.07420249615040
N           -0.90636045039769       -1.20185900960388       -0.03785306170544
C           -1.37791568598446       -2.58042365980025       -0.05698601613035
H            3.74865978308826        1.29240373265570        1.06085432750723
H            4.01857385757131        1.13329047629676       -0.68255149387472
H            2.72779313619090        2.18483306098883       -0.07395591583895
H            3.56941835437040       -1.51992517113468        0.04089365228255
H           -1.73520353861527        3.14159172179891       -0.02740204910899
H           -2.86528415986130        2.11358418074983       -0.95275372879332
H           -2.91526139898293        2.09582860029358        0.81216262512998
H           -1.00546458150533       -3.08693190134150        0.82900927325387
H           -0.98207206916462       -3.07056856598095       -0.94268141531793
H           -2.45893885722160       -2.58244240543999       -0.07162963295246
H            0.96902306652290       -4.12817251165600       -0.03482309226450
25
 energy: 20.550742734845 xtb: 6.6.1 (8d0f1dd)
C            3.25597720751300        1.24770392632332        0.08770334272947
N            2.30607361477796        0.16050883642113        0.03755275788919
C            2.53062745243317       -1.16408516795628        0.03451848293969
N            1.43447322187010       -1.91643351469916        0.00717079676130
C            0.45165453340727       -1.00732858014472       -0.00771564031428
C            0.93787049261229        0.29955739560426        0.01187466766920
C            0.10057675606917        1.47333379158197       -0.00477568351719
O            0.43909253763969        2.63123317357399        0.00418876356931
N           -1.26272095228999        1.12601438047396       -0.03395825160422
C           -2.25384008220545        2.18526515855821       -0.05130124537013
C           -1.79245731534388       -0.17149344901944       -0.04937759169296
O           -2.98474290337264       -0.36114397099084       -0.07351375975813
N           -0.89419320153267       -1.20529917639477       -0.03673252493424
C           -1.37220840403873       -2.58315571446756       -0.05703890018321
H            3.74586360015870        1.29414755177526        1.06121485341394
H            4.01869119027352        1.12954021600326       -0.68174181676970
H            2.73147479838867        2.19240267941228       -0.07615090440722
H            3.54414554237238       -1.52253694403681        0.04618730439968
H           -1.73573596343131        3.14023327432246       -0.02717636008143
H           -2.86420203227137        2.11037516365092       -0.95241158300501
H           -2.91441977520841        2.09236671569990        0.81192226283260
H           -1.00337338356876       -3.09695196217194        0.82736430271487
H           -0.98040240049949       -3.07971095888122       -0.94169985936130
H           -2.45599967961761       -2.57378549114764       -0.07157300286137
H            0.92998945083680       -4.41172854474652       -0.03749649886428
25
 energy: 19.920012812367 xtb: 6.6.1 (8d0f1dd)
C            3.26183684204338        1.27165913716443        0.08654516529890
N            2.30776256213390        0.18975399406527        0.03961884802672
C            2.53860228285952       -1.12739915678713        0.03395008474022
N            1.46519311763637       -1.86380897762763        0.00506611218738
C            0.45054738823757       -0.97319762885847       -0.00710392813793
C            0.93817448540542        0.33032331221235        0.01380538127765
C            0.08858949348136        1.48769692626517       -0.00307261944035
O            0.43619276072623        2.65181173077866        0.00306799632232
N           -1.25974830001146        1.12365135973083       -0.03251073095247
C           -2.25471012198163        2.18330337680879       -0.05100623787536
C           -1.78699768716890       -0.17401109772737       -0.04840473507478
O           -2.98274982074095       -0.35264145527445       -0.07294806915083
N           -0.89066123735627       -1.21122304552063       -0.03637149974705
C           -1.37051715302112       -2.58365291086462       -0.05760398197338
H            3.74841964457356        1.30818290550098        1.06309605790793
H            4.02432945792255        1.13589522024386       -0.68086815973887
H            2.74098422514518        2.21521645496892       -0.08065169845107
H            3.54176490575987       -1.51908212981693        0.04978546073352
H           -1.73422428977786        3.13800141975513       -0.02669740195774
H           -2.86324640950986        2.10786480745790       -0.95277689708466
H           -2.91398896381018        2.08977423768711        0.81249156424744
H           -1.01133063517381       -3.10576477170226        0.82776134897657
H           -0.98831207591686       -3.08740570702775       -0.94413203904423
H           -2.45607173114141       -2.56004017887224       -0.07188021483553
H            0.88237556465783       -4.68587903381590       -0.04212589405980
25
 energy: 19.737932240860 xtb: 6.6.1 (8d0f1dd)
C            3.26585531935909        1.28683856765679        0.08775773135119
N            2.30993931772297        0.21211925308926        0.03980733680543
C            2.54995732346092       -1.11091654676429        0.03310427475699
N            1.46727085393142       -1.85220493453673        0.00477284424368
C            0.44859083890111       -0.96018054264613       -0.00684327111840
C            0.93800761426583        0.34170181688086        0.01489993386978
C            0.08430111871961        1.49306777945324       -0.00332678076146
O            0.43553664709959        2.65928109531238        0.00131569922178
N           -1.26032515410267        1.12392521957533       -0.03229506702938
C           -2.25658249980869        2.18383295488517       -0.05099519564052
C           -1.78371108492284       -0.17070565175297       -0.04841604214627
O           -2.98075013342623       -0.35006784853849       -0.07262004517389
N           -0.88852435395799       -1.21367751563066       -0.03645563017379
C           -1.36757478004272       -2.58210591518893       -0.05744970954634
H            3.75145363562931        1.31628817214837        1.06540097029077
H            4.02696168653989        1.14075141072753       -0.67940098989135
H            2.74685386731085        2.22931083787442       -0.08045201928315
H            3.54574093055191       -1.51295287323302        0.04612749611720
H           -1.73383873717742        3.13746862908902       -0.02684902900577
H           -2.86388732987518        2.10757623780855       -0.95306340736409
H           -2.91490644192157        2.08969688655453        0.81269252017646
H           -1.01271552851479       -3.10879031795583        0.82806150104707
H           -0.98955112046397       -3.09047500108898       -0.94418416319682
H           -2.45483026377703       -2.55542610214132       -0.07182148999865
H            0.84894257947108       -4.82532682283408       -0.04273355535591
25
 energy: 19.694449931983 xtb: 6.6.1 (8d0f1dd)
C            3.26576953530908        1.28601004618018        0.08722580447308
N            2.30798040037088        0.21484510549927        0.03980349467427
C            2.55130498403269       -1.10821496877571        0.03320366365019
N            1.46593721829075       -1.84739550334539        0.00423419286876
C            0.44786003065079       -0.95633962964212       -0.00668293177986
C            0.93771587743178        0.34381548399073        0.01569908754616
C            0.08314722352024        1.49478515347687       -0.00290030526240
O            0.43586050941031        2.66039125247599        0.00146098976532
N           -1.26092147441929        1.12392762858344       -0.03188164950293
C           -2.25762176492690        2.18403204306904       -0.05089448330843
C           -1.78297620406514       -0.16876213649588       -0.04825788848619
O           -2.97980615184295       -0.35122272882056       -0.07279604094974
N           -0.88665462597520       -1.21490593304481       -0.03650382748300
C           -1.36564911617266       -2.58136102054762       -0.05767213488029
H            3.75142745190724        1.31529565715963        1.06462240106354
H            4.02664662604592        1.13885905715187       -0.67978469206653
H            2.74783421518791        2.22875744308812       -0.08115047389111
H            3.54297357194809       -1.51680202613322        0.04792784248744
H           -1.73428607828973        3.13729738782541       -0.02667254147690
H           -2.86446287292715        2.10746390292938       -0.95305342930668
H           -2.91573821097529        2.08953262801350        0.81268444983316
H           -1.01092920634597       -3.10898178843503        0.82758449543020
H           -0.98777201115184       -3.09045947405591       -0.94429023079684
H           -2.45346992345025       -2.55500325050911       -0.07200034333538
H            0.84804430140914       -4.83653554089409       -0.04287153707128
25
 energy: 19.679888069572 xtb: 6.6.1 (8d0f1dd)
C            3.26526548689184        1.28556530742915        0.08763384045679
N            2.30642118474386        0.21596844155406        0.03978870940393
C            2.55258829564462       -1.10727365393464        0.03250168733619
N            1.46436655793542       -1.84598131789880        0.00393064228196
C            0.44734358050764       -0.95548732544820       -0.00667448835929
C            0.93769249413752        0.34398936286642        0.01597293133655
C            0.08300781973521        1.49506559346287       -0.00326507247476
O            0.43582698667227        2.66039054390374        0.00107083938152
N           -1.26125735253249        1.12306441367807       -0.03198356511663
C           -2.25757816869287        2.18399295452395       -0.05098234413276
C           -1.78270595735269       -0.16720169302635       -0.04839282666207
O           -2.97923872161749       -0.35275995994702       -0.07278036258491
N           -0.88577424650507       -1.21646488594910       -0.03658766038863
C           -1.36612559024644       -2.58093811477401       -0.05746270602704
H            3.75127563646879        1.31552102769245        1.06483708824349
H            4.02642042635238        1.13943890417087       -0.67919893406711
H            2.74853412767079        2.22929782470077       -0.08042697125651
H            3.54181675796137       -1.51938244124166        0.04680598171434
H           -1.73354566368605        3.13686442058772       -0.02683748498780
H           -2.86429923207950        2.10756856780620       -0.95310408228372
H           -2.91541452879744        2.08968227451026        0.81268153173679
H           -1.01235384350896       -3.10935482537137        0.82780857642134
H           -0.98927705895682       -3.09112596965313       -0.94398130774587
H           -2.45401885430189       -2.55388972658516       -0.07175865559015
H            0.85324416852841       -4.83752093431305       -0.04256145444109
25
 energy: 19.676091628026 xtb: 6.6.1 (8d0f1dd)
C            3.26527906679244        1.28483922893661        0.08726647284675
N            2.30588447202444        0.21567554980915        0.03979205665003
C            2.55228151883802       -1.10761103446860        0.03299448680949
N            1.46303936801428       -1.84577716524709        0.00392368301943
C            0.44676877279718       -0.95529233995211       -0.00659073610743
C            0.93764848351766        0.34419195531756        0.01621301551232
C            0.08320053673036        1.49533078689687       -0.00296606174181
O            0.43551469977731        2.66071411734048        0.00134796925673
N           -1.26150867053156        1.12293491825059       -0.03179881122440
C           -2.25779388351126        2.18415343563115       -0.05089957895871
C           -1.78311997590036       -0.16608095137462       -0.04829861695571
O           -2.97949505149068       -0.35285951739686       -0.07282735551523
N           -0.88609181720588       -1.21649902727976       -0.03663724612824
C           -1.36610954544298       -2.58084018524264       -0.05770122500714
H            3.75132529002071        1.31510820827621        1.06452675811069
H            4.02642571674558        1.13839033984029       -0.67960890304395
H            2.74896836699025        2.22896813525909       -0.08114170050928
H            3.54105992061898       -1.52053384304263        0.04749488395992
H           -1.73389306544856        3.13711277130172       -0.02667283642164
H           -2.86443680123895        2.10771224753219       -0.95307337159919
H           -2.91572707108624        2.08979228126002        0.81269031713493
H           -1.01210482785392       -3.10947995254742        0.82749933197070
H           -0.98894668926642       -3.09099802754887       -0.94428303346243
H           -2.45402525984548       -2.55439473707456       -0.07203179504737
H            0.85807075092752       -4.83552840573275       -0.04218379135390
25
 energy: 19.670173678142 xtb: 6.6.1 (8d0f1dd)
C            3.26513919166816        1.28460365800970        0.08759577910450
N            2.30584765569677        0.21502106734143        0.03974322762925
C            2.55157930166380       -1.10834133089947        0.03264678380209
N            1.46181314860627       -1.84596642214588        0.00369415943206
C            0.44626337174997       -0.95528860598741       -0.00672680133128
C            0.93767444200797        0.34433473384674        0.01600968952147
C            0.08361415265052        1.49532094587859       -0.00320143152644
O            0.43524305259907        2.66087052540000        0.00110394073968
N           -1.26154931416107        1.12275242148657       -0.03197576025229
C           -2.25765772723195        2.18419766786994       -0.05098362766664
C           -1.78355517417560       -0.16548477102327       -0.04837970150071
O           -2.97982120846888       -0.35291655949870       -0.07275049092463
N           -0.88663577510180       -1.21620892569792       -0.03667367763164
C           -1.36635683497618       -2.58071209706000       -0.05748594478841
H            3.75110311362210        1.31484894410749        1.06494414601413
H            4.02632977443127        1.13867576638506       -0.67934436860616
H            2.74855873846981        2.22872229858130       -0.08054969178873
H            3.54064569866548       -1.52097528092394        0.04676789575045
H           -1.73368722189047        3.13710461088707       -0.02681424009903
H           -2.86437855420922        2.10774575936089       -0.95312411736312
H           -2.91551985178435        2.08986084420998        0.81269076522347
H           -1.01222608159218       -3.10918651016000        0.82781234913355
H           -0.98919512450220       -3.09095981415969       -0.94404400431803
H           -2.45416101777219       -2.55424773656216       -0.07176038518663
H            0.86314654900731       -4.83474240050231       -0.04216058117231
25
 energy: 19.667360967578 xtb: 6.6.1 (8d0f1dd)
C            3.26532779075462        1.28461407364177        0.08719527513786
N            2.30627378516996        0.21441855122664        0.03981936449688
C            2.55058747707183       -1.10912338614776        0.03311992487745
N            1.46055124190453       -1.84598025929872        0.00396937488436
C            0.44576873689104       -0.95484663727572       -0.00658786093371
C            0.93771797548195        0.34476501448640        0.01614436750702
C            0.08385531204711        1.49542921130041       -0.00286275904222
O            0.43485387364915        2.66118347966314        0.00145772939400
N           -1.26160553117239        1.12287045672014       -0.03182247895590
C           -2.25770657315073        2.18430065106790       -0.05088090242638
C           -1.78395416722796       -0.16536234564543       -0.04829673487348
O           -2.98018719576360       -0.35272053988677       -0.07283533971340
N           -0.88721750499743       -1.21556764394517       -0.03666056380071
C           -1.36640350761006       -2.58064121466450       -0.05776998337996
H            3.75132341073290        1.31510198745825        1.06448126398590
H            4.02645071883989        1.13839531375837       -0.67974134023426
H            2.74851851134469        2.22850262703533       -0.08126435593762
H            3.54038880602823       -1.52072837416169        0.04739132209007
H           -1.73387616536822        3.13726633880158       -0.02663576093331
H           -2.86437861636659        2.10781881608787       -0.95307258856066
H           -2.91569555299865        2.08989510349637        0.81271731045022
H           -1.01225900942850       -3.10912317404465        0.82743744240503
H           -0.98901114687209       -3.09057502025397       -0.94437312015490
H           -2.45418864685359       -2.55440440736926       -0.07215228931666
H            0.86708028286636       -4.83645983330647       -0.04174338477100
