25
 energy: 0.000000000000 xtb: 6.6.1 (8d0f1dd)
C            3.23720163006194        1.16630919979326        0.08434469647475
N            2.29877817382611        0.07527477071623        0.03981603040599
C            2.58028210190900       -1.21425402444508        0.03006176031096
N            1.43813958087363       -1.93419271955128        0.00098261760884
C            0.39035688448383       -1.05887472636071       -0.00790371836672
C            0.93510056364412        0.21347819449412        0.01709077491437
C            0.09450143893243        1.40504303904423       -0.00410947031874
O            0.49712751527797        2.54126714362870       -0.00342325688240
N           -1.25076640035757        1.06271879480407       -0.03085478223738
C           -2.21907211982101        2.15522099834493       -0.05001256985998
C           -1.81739487048744       -0.20012725993278       -0.04692818574614
O           -2.99983886758376       -0.37846417018721       -0.07008878229737
N           -0.92618586207120       -1.30210215599479       -0.03682761578324
C           -1.46982264913417       -2.64643102187190       -0.06029820460571
H            3.71247264356769        1.21471455160235        1.06488849150277
H            4.00791497605742        1.03430808813993       -0.67357694370751
H            2.69910007168542        2.09770118228144       -0.09130154882931
H            3.56654120610678       -1.63682992603973        0.04233140067262
H           -1.67107961066214        3.09322851271934       -0.02552706933167
H           -2.82428953597071        2.09428624779827       -0.95318082946668
H           -2.87644029173232        2.07745725625962        0.81450067533302
H           -1.17061996399332       -3.19584890659852        0.83242232437030
H           -1.14560257411436       -3.17511610292205       -0.95688275822323
H           -2.55549792440841       -2.55659984320617       -0.07459039797972
H            1.38130855184625       -2.94313852034425       -0.01389874181052
25
 energy: -2.003347959148 xtb: 6.6.1 (8d0f1dd)
C            3.24017963882433        1.18292599145248        0.08609187298005
N            2.30354341396030        0.08764063574225        0.03763093532287
C            2.58247176768098       -1.25317896529741        0.02988881717588
N            1.40930769548085       -1.99398831558367        0.00011248851594
C            0.40085556464942       -1.06489563636910       -0.00862969090889
C            0.93016858368442        0.22181969095698        0.01510299243567
C            0.10196720102123        1.40644144686943       -0.00446604482751
O            0.49477238039019        2.57447330745489       -0.00241281665579
N           -1.26044276099881        1.06474591960108       -0.03122050446381
C           -2.22951978535454        2.15647485784074       -0.05009295562424
C           -1.81702913333415       -0.18901649623752       -0.04783113184251
O           -3.01266343104136       -0.37427743604459       -0.07126270240165
N           -0.92772610753886       -1.28971319756230       -0.03725048203871
C           -1.44729899605618       -2.63345037968935       -0.05968249642742
H            3.72480543160172        1.23999789227587        1.06514402797493
H            4.01159006769878        1.06108205767779       -0.67602352782075
H            2.70578267969444        2.11838867453408       -0.08625649422631
H            3.56734707879668       -1.65641996391438        0.04357427987934
H           -1.68200645347353        3.09621818555557       -0.02570695606775
H           -2.83700771005155        2.09825228775480       -0.95313929373129
H           -2.88901670140714        2.08117264661451        0.81421687789206
H           -1.12528827435467       -3.17361434924067        0.83264297733477
H           -1.10071355490682       -3.15372063111376       -0.95468958440491
H           -2.53238053750693       -2.55779186558068       -0.07394057179858
H            1.30051661047742       -3.06053775552502       -0.01476612012411
25
 energy: 5.350097057466 xtb: 6.6.1 (8d0f1dd)
C            3.24242768277197        1.18908454478174        0.08706772982291
N            2.30664988460048        0.08907500478808        0.03448155630928
C            2.57574480325265       -1.28788546277679        0.03055412446827
N            1.37705023682174       -2.04614467394235       -0.00024498422582
C            0.40955072306756       -1.06786236241244       -0.00933491733803
C            0.92649015994964        0.22495062547637        0.01277994481684
C            0.10855348538477        1.40092584087435       -0.00464870306313
O            0.48287946523679        2.58262674901742       -0.00062501537816
N           -1.27131848689950        1.07228711337252       -0.03178475796673
C           -2.23995993237972        2.16352502662364       -0.05028431508318
C           -1.81371096607734       -0.17428818090167       -0.04881153933561
O           -3.01294187578744       -0.37059581768472       -0.07294601935262
N           -0.92829595270503       -1.26858461036430       -0.03765404339385
C           -1.41667156799710       -2.61713626182370       -0.05886589367404
H            3.73570351396692        1.25930570453642        1.06351685751072
H            4.01476021531301        1.08753366504007       -0.67962511910177
H            2.70724547411096        2.12778281062708       -0.07961607457353
H            3.56456380710298       -1.66584717380309        0.04573607069385
H           -1.69564206836074        3.10580288483130       -0.02596243552595
H           -2.85019833712235        2.10462923957895       -0.95237580405614
H           -2.90180438462676        2.08721093570351        0.81308271956009
H           -1.06973590360277       -3.14590779476553        0.83326131878480
H           -1.04566007796958       -3.12724810891822       -0.95218904094809
H           -2.50191181261371       -2.56878971291478       -0.07319175216653
H            1.20844658249877       -3.16542138277183       -0.01528601063628
25
 energy: 10.259759316041 xtb: 6.6.1 (8d0f1dd)
C            3.24269844079372        1.18926524862032        0.08716591444743
N            2.30807439444223        0.08757088305342        0.03287626948204
C            2.57071575725283       -1.29917429468409        0.03161523711748
N            1.36414626093335       -2.06376539165953       -0.00012825824879
C            0.41183430749050       -1.07023628051231       -0.00950361986600
C            0.92583605407787        0.22362451654980        0.01188880699611
C            0.11113093559093        1.39941720090345       -0.00444749790259
O            0.47663143402097        2.58139701108873        0.00048418680254
N           -1.27607795143474        1.07905154853209       -0.03220840329096
C           -2.24376200076510        2.16980141587855       -0.05054430098026
C           -1.81381728908417       -0.16827536534182       -0.04942617683801
O           -3.01241021507750       -0.37094483340545       -0.07417392882581
N           -0.92894795839294       -1.25794996084950       -0.03781258855234
C           -1.40241573713393       -2.61091166794194       -0.05830393798826
H            3.73908150035742        1.26219240161265        1.06204001106713
H            4.01402663073489        1.09704211986928       -0.68201028869420
H            2.70482616652094        2.12826488939303       -0.07585298685979
H            3.56474182147048       -1.66396158960768        0.04699399930746
H           -1.70174695422385        3.11310715468486       -0.02622856615076
H           -2.85473353309702        2.10935178181082       -0.95225954771758
H           -2.90607838832830        2.09183131380549        0.81255915339318
H           -1.04469795594170       -3.13182018934642        0.83452617547319
H           -1.02070810489268       -3.11401801485672       -0.95142185513740
H           -2.48759371854815       -2.58017928840044       -0.07274354725706
H            1.17146077117014       -3.21165200702457       -0.01605035362945
25
 energy: 12.177527374199 xtb: 6.6.1 (8d0f1dd)
C            3.24279983539407        1.18958935132877        0.08719790600769
N            2.30900538683186        0.08761227942652        0.03220263454970
C            2.56959893004929       -1.29920664427961        0.03264209623184
N            1.36279243133892       -2.06564577576282        0.00012536599227
C            0.41236904085216       -1.07211403937982       -0.00960165923085
C            0.92624703740771        0.22204244772189        0.01151149651814
C            0.11213277536362        1.39957360057578       -0.00444681073186
O            0.47468317804918        2.57990327953881        0.00096959032513
N           -1.27689430983715        1.08153708802441       -0.03247663278625
C           -2.24417543661399        2.17170764557392       -0.05066067183960
C           -1.81458745871150       -0.16755692559176       -0.04967627427991
O           -3.01232472916595       -0.37202582402550       -0.07457193243581
N           -0.92933833505986       -1.25494896922532       -0.03790868556914
C           -1.40041172475167       -2.60962199145466       -0.05810885493318
H            3.73985880829139        1.26153361028475        1.06150171203838
H            4.01320775160670        1.09909574508022       -0.68275154578336
H            2.70397231200990        2.12839252687536       -0.07459687940557
H            3.56631988419791       -1.65838510910989        0.04715847941337
H           -1.70300615472598        3.11522298419714       -0.02637185936337
H           -2.85521055076739        2.11085303411079       -0.95234485443844
H           -2.90637711173213        2.09334353356930        0.81255932083876
H           -1.04141013610587       -3.12786696756553        0.83512427766452
H           -1.01740750785318       -3.11038239843751       -0.95139163414126
H           -2.48505562538803       -2.58370099111370       -0.07258203152464
H            1.16542637725616       -3.22992288818956       -0.01646865696932
25
 energy: 13.824662081248 xtb: 6.6.1 (8d0f1dd)
C            3.24301135034149        1.19005554718078        0.08723688995294
N            2.30971490152295        0.08820196389779        0.03159066305848
C            2.56929098390567       -1.29644247309853        0.03428689372847
N            1.36437753624582       -2.06283431332199        0.00056984623540
C            0.41235036296690       -1.07347969677553       -0.00979147907151
C            0.92664742594441        0.22091092588697        0.01113592795712
C            0.11280852785884        1.40041302911129       -0.00457612419256
O            0.47387618095991        2.57924479313290        0.00134526571404
N           -1.27666491855474        1.08272987730421       -0.03274209083673
C           -2.24397447293118        2.17211765510442       -0.05072662555066
C           -1.81549982050930       -0.16794310259695       -0.04979016925032
O           -3.01246496912111       -0.37250509423370       -0.07463150833492
N           -0.92972566272008       -1.25344247781970       -0.03804078751247
C           -1.40132283563265       -2.60935731844293       -0.05805437393993
H            3.74012533454818        1.26066923305614        1.06133898956585
H            4.01287172593005        1.09944681297369       -0.68294735251289
H            2.70423103446815        2.12880118739499       -0.07409676287007
H            3.56769543290743       -1.65229355487347        0.04645947412440
H           -1.70355490554029        3.11591941207926       -0.02646113936709
H           -2.85507495558919        2.11126744105015       -0.95239941198212
H           -2.90603424644184        2.09375342304747        0.81265824281962
H           -1.04266346260248       -3.12646008387365        0.83534779690105
H           -1.01869201515626       -3.10913813419503       -0.95145589378471
H           -2.48558913200308       -2.58452130966568       -0.07251856127669
H            1.16647526713856       -3.24608514015088       -0.01670381342741
25
 energy: 14.593348285849 xtb: 6.6.1 (8d0f1dd)
C            3.24311662887605        1.19038733946581        0.08726520893073
N            2.30972093849712        0.08874676229864        0.03139071636454
C            2.56946347491853       -1.29447069445206        0.03582826545425
N            1.36624585128044       -2.05913048217265        0.00087872908344
C            0.41199889017989       -1.07317219834289       -0.00995880359329
C            0.92655368517401        0.22145251246863        0.01100694121670
C            0.11276546447129        1.40121030604730       -0.00468879223891
O            0.47423723197723        2.58006876329700        0.00137673299708
N           -1.27620455306484        1.08244327895342       -0.03283358116016
C           -2.24379750442411        2.17154637678944       -0.05072574959188
C           -1.81574899433835       -0.16837282690678       -0.04973730160107
O           -3.01266095087823       -0.37194811569107       -0.07441015264141
N           -0.92983201524622       -1.25357329173185       -0.03812684985718
C           -1.40254198347021       -2.60967129773972       -0.05811827340287
H            3.73987778955845        1.26074416422420        1.06157471140473
H            4.01321136041045        1.09889858133340       -0.68264416263364
H            2.70490859025724        2.12925943211996       -0.07443109571093
H            3.56763891084514       -1.65107153680400        0.04511354657381
H           -1.70358195945295        3.11554571867688       -0.02644918112497
H           -2.85495120359163        2.11086713134850       -0.95239288319855
H           -2.90584663888131        2.09331511780810        0.81270255584896
H           -1.04437347968536       -3.12721080638170        0.83519008489475
H           -1.02043651981128       -3.10987505452207       -0.95148082258049
H           -2.48689159299624       -2.58327214296619       -0.07255573665332
H            1.16934324733106       -3.25368843494828       -0.01674021063303
25
 energy: 14.983678446834 xtb: 6.6.1 (8d0f1dd)
C            3.24312610181406        1.19068678713204        0.08730214079895
N            2.30949675093197        0.08911133822866        0.03146781907091
C            2.56967179647306       -1.29376885758020        0.03741583957214
N            1.36734379827362       -2.05654904099949        0.00104987176341
C            0.41169668644825       -1.07225889044453       -0.01010786899916
C            0.92630362346645        0.22267722642275        0.01103049535676
C            0.11243552807133        1.40170845545088       -0.00475308043336
O            0.47481170936708        2.58114088966462        0.00120849598111
N           -1.27601350870412        1.08189123668999       -0.03283680151172
C           -2.24381201841348        2.17109092363237       -0.05070901263534
C           -1.81557452562148       -0.16848488821307       -0.04966942148338
O           -3.01272990252112       -0.37126903997447       -0.07419017459211
N           -0.92978945960294       -1.25422666332352       -0.03820211925413
C           -1.40303080391427       -2.60996705533583       -0.05819378065234
H            3.73955604533577        1.26134019190606        1.06185211699777
H            4.01362544753530        1.09854331355448       -0.68227460916146
H            2.70527674154297        2.12965610585867       -0.07489322537925
H            3.56707104400551       -1.65238254026083        0.04343377977859
H           -1.70343467872524        3.11509854488423       -0.02640750665981
H           -2.85496497596384        2.11052205132175       -0.95238158784346
H           -2.90588802348651        2.09292513594998        0.81269686117665
H           -1.04510925369201       -3.12816425077030        0.83501553396383
H           -1.02117824739915       -3.11080474823106       -0.95148449672376
H           -2.48755867849387       -2.58205347850265       -0.07261131582515
H            1.17088347120885       -3.25743414488849       -0.01672405715840
25
 energy: 15.088415958753 xtb: 6.6.1 (8d0f1dd)
C            3.24311181544070        1.19086089413619        0.08734295909956
N            2.30935719559465        0.08922130970334        0.03167735246406
C            2.56975745123319       -1.29388753050079        0.03869765888666
N            1.36753317285537       -2.05583999015990        0.00109249676228
C            0.41161612998235       -1.07168067787905       -0.01022591736436
C            0.92619700733864        0.22345518630478        0.01108372393184
C            0.11219443968290        1.40181060208741       -0.00478869104126
O            0.47507322708457        2.58159543248089        0.00103073427416
N           -1.27607892427573        1.08165432521481       -0.03281829061567
C           -2.24390589460348        2.17104833982217       -0.05069973190622
C           -1.81533047911223       -0.16836235652671       -0.04966135328542
O           -3.01265937735586       -0.37105072355162       -0.07411797916387
N           -0.92972407962081       -1.25470997882026       -0.03827888214768
C           -1.40293736811400       -2.61005331779717       -0.05823162952914
H            3.73944047671651        1.26179712903775        1.06196048805377
H            4.01376957615918        1.09855061781964       -0.68210663223198
H            2.70525926124481        2.12981771029464       -0.07508552069038
H            3.56672137089713       -1.65366708291672        0.04208757909283
H           -1.70328047567796        3.11493464926152       -0.02638660949280
H           -2.85501807740408        2.11047982047620       -0.95238148461185
H           -2.90597947675424        2.09286229232560        0.81268092361529
H           -1.04507860134982       -3.12853486666931        0.83496524188688
H           -1.02113996628249       -3.11120857054359       -0.95148356666195
H           -2.48754500950512       -2.58171868267018       -0.07263965881205
H            1.17086127376200       -3.25834592875761       -0.01667931436544
