25
 energy: 0.000000000000 xtb: 6.6.1 (8d0f1dd)
C            3.23720163006194        1.16630919979326        0.08434469647475
N            2.29877817382611        0.07527477071623        0.03981603040599
C            2.58028210190900       -1.21425402444508        0.03006176031096
N            1.43813958087363       -1.93419271955128        0.00098261760884
C            0.39035688448383       -1.05887472636071       -0.00790371836672
C            0.93510056364412        0.21347819449412        0.01709077491437
C            0.09450143893243        1.40504303904423       -0.00410947031874
O            0.49712751527797        2.54126714362870       -0.00342325688240
N           -1.25076640035757        1.06271879480407       -0.03085478223738
C           -2.21907211982101        2.15522099834493       -0.05001256985998
C           -1.81739487048744       -0.20012725993278       -0.04692818574614
O           -2.99983886758376       -0.37846417018721       -0.07008878229737
N           -0.92618586207120       -1.30210215599479       -0.03682761578324
C           -1.46982264913417       -2.64643102187190       -0.06029820460571
H            3.71247264356769        1.21471455160235        1.06488849150277
H            4.00791497605742        1.03430808813993       -0.67357694370751
H            2.69910007168542        2.09770118228144       -0.09130154882931
H            3.56654120610678       -1.63682992603973        0.04233140067262
H           -1.67107961066214        3.09322851271934       -0.02552706933167
H           -2.82428953597071        2.09428624779827       -0.95318082946668
H           -2.87644029173232        2.07745725625962        0.81450067533302
H           -1.17061996399332       -3.19584890659852        0.83242232437030
H           -1.14560257411436       -3.17511610292205       -0.95688275822323
H           -2.55549792440841       -2.55659984320617       -0.07459039797972
H            1.38130855184625       -2.94313852034425       -0.01389874181052
25
 energy: -3.059948245734 xtb: 6.6.1 (8d0f1dd)
C            3.24070567234011        1.18161562336764        0.08620609312149
N            2.30437100904294        0.08812227535339        0.03761792910531
C            2.58489067514474       -1.25095029957160        0.02990029920640
N            1.41138755344971       -1.98531818012898        0.00023491291937
C            0.39977624731162       -1.06336853881118       -0.00861388524876
C            0.93021125605094        0.22171184061587        0.01507816119319
C            0.10205276503558        1.40472981458944       -0.00460215003696
O            0.49566699553345        2.57241098829384       -0.00270780589852
N           -1.26051789492427        1.06269337617777       -0.03122204098864
C           -2.22838945191124        2.15505384157789       -0.05005539051206
C           -1.81838430996063       -0.19056977282367       -0.04780639169353
O           -3.01422927603333       -0.37528295507675       -0.07119418288265
N           -0.92901918604229       -1.29114909585242       -0.03725572781333
C           -1.45033823556759       -2.63485605483377       -0.05974968113612
H            3.72452875020039        1.23754302811859        1.06561085387420
H            4.01157092087629        1.05854223014326       -0.67618172911941
H            2.70416197317570        2.11532698947321       -0.08644362908924
H            3.56841556061546       -1.65883467886258        0.04346960352057
H           -1.67888992581272        3.09357446807230       -0.02564886867599
H           -2.83566478638530        2.09762222458883       -0.95326173740466
H           -2.88769251296599        2.08059008228833        0.81444289197557
H           -1.13020135553692       -3.17613484736084        0.83259115771682
H           -1.10556984571474       -3.15619042925755       -0.95486196088185
H           -2.53548775791569       -2.55761401352803       -0.07402325458913
H            1.30885982792996       -3.04023931438098       -0.01448957051477
25
 energy: 1.327281132535 xtb: 6.6.1 (8d0f1dd)
C            3.24322609748395        1.18617706550016        0.08726564342782
N            2.30788485200026        0.08949613121057        0.03438531668891
C            2.58005251227690       -1.28331261059010        0.03049703997474
N            1.38142724396540       -2.02718626028030        0.00005442848971
C            0.40663773989930       -1.06458658195697       -0.00933233132573
C            0.92656186722721        0.22524230725328        0.01271154743222
C            0.10868162342696        1.39815110677215       -0.00499189984079
O            0.48479356245312        2.57923749996771       -0.00140746853629
N           -1.27121107638452        1.06775775427906       -0.03179033310755
C           -2.23745636378882        2.16038676056285       -0.05019086388580
C           -1.81646541637441       -0.17793130515379       -0.04878862885700
O           -3.01584036793341       -0.37258445403026       -0.07279914345723
N           -0.93092121130963       -1.27250527370965       -0.03768179445093
C           -1.42307304685688       -2.62076771406880       -0.05901448859757
H            3.73538860473838        1.25400540840145        1.06417089931807
H            4.01464782963752        1.08227530916061       -0.67977375215972
H            2.70455513092089        2.12189798843215       -0.07964153464832
H            3.56504502579632       -1.67310361418972        0.04547673814293
H           -1.68886978569358        3.10006293476535       -0.02582057620305
H           -2.84735361436179        2.10339353251303       -0.95254003691838
H           -2.89897188029960        2.08604807014246        0.81350469355063
H           -1.08004577182268       -3.15174746025158        0.83315931012416
H           -1.05583176591524       -3.13298878740660       -0.95255341841574
H           -2.50846081306404       -2.56848777314834       -0.07337948655127
H            1.22781369191462       -3.11990143200269       -0.01448596404651
25
 energy: 3.835290672364 xtb: 6.6.1 (8d0f1dd)
C            3.24336155904374        1.18475135301983        0.08732950125653
N            2.30910605548735        0.08692360521792        0.03268536309073
C            2.57532881599719       -1.29377748815074        0.03142559453654
N            1.36996197009358       -2.03943803828031        0.00031697868324
C            0.40776786806906       -1.06564604964203       -0.00950257218325
C            0.92597511932722        0.22444357811229        0.01177983050345
C            0.11113589395380        1.39662490247102       -0.00494262648722
O            0.47890022607170        2.57796123363906       -0.00059950903542
N           -1.27570359435525        1.07312686764148       -0.03220400745430
C           -2.24054404015341        2.16568067192305       -0.05041172283681
C           -1.81709717339838       -0.17299769851926       -0.04939177255913
O           -3.01573273782741       -0.37327337456502       -0.07397434914250
N           -0.93198408880960       -1.26350730940534       -0.03783355286076
C           -1.41018248278429       -2.61602335532738       -0.05850418910435
H            3.73854094685313        1.25467980288432        1.06272406109189
H            4.01376279708349        1.08980419471630       -0.68216425600584
H            2.70178940024472        2.12050720822710       -0.07568606654376
H            3.56377561593544       -1.67515746130688        0.04663629860012
H           -1.69318496444802        3.10579594169778       -0.02603381361221
H           -2.85112526690976        2.10768855987927       -0.95241179737494
H           -2.90246896124424        2.09023119889100        0.81306999545755
H           -1.05759694348962       -3.14012643572838        0.83429957837261
H           -1.03342212015490       -3.12217085725556       -0.95182644087282
H           -2.49566737775825       -2.57987020361667       -0.07300677117738
H            1.19751815110893       -3.14720224435084       -0.01473985819465
25
 energy: 4.416305779632 xtb: 6.6.1 (8d0f1dd)
C            3.24314187737068        1.18375384368475        0.08730842898019
N            2.30967842106737        0.08561385949085        0.03190022298558
C            2.57366994333274       -1.29476276954017        0.03229986145334
N            1.36843922837305       -2.04046593950595        0.00062363083163
C            0.40766139539833       -1.06679467236292       -0.00958094231301
C            0.92625094778628        0.22318820327073        0.01137064551324
C            0.11215363710142        1.39675663550163       -0.00497040065989
O            0.47701389098150        2.57679237833567       -0.00017100740200
N           -1.27660486803431        1.07512394067323       -0.03246275192816
C           -2.24083085800764        2.16747842322313       -0.05053707300362
C           -1.81808924489844       -0.17232691868371       -0.04967636059346
O           -3.01592425008216       -0.37424884221350       -0.07445759270324
N           -0.93260689107046       -1.26101017480061       -0.03790781378895
C           -1.40762613501387       -2.61529847918082       -0.05828425406389
H            3.73920896876979        1.25262088838139        1.06209065485470
H            4.01260444502333        1.09103768736155       -0.68313714494747
H            2.70043924697809        2.11928134056450       -0.07405687776111
H            3.56409111711049       -1.67256142607334        0.04687534734833
H           -1.69400454357777        3.10769177806594       -0.02617620881829
H           -2.85150973842674        2.10935079721660       -0.95249727026355
H           -2.90269347310372        2.09189289363709        0.81303539597792
H           -1.05339383200015       -3.13683269740663        0.83492777635695
H           -1.02917484085376       -3.11921991578652       -0.95172817875931
H           -2.49278975864546       -2.58439903480100       -0.07285204833548
H            1.19310998235760       -3.15363319687986       -0.01490214281313
25
 energy: 4.601951839129 xtb: 6.6.1 (8d0f1dd)
C            3.24300302330633        1.18317569764030        0.08731301188656
N            2.31005195227951        0.08486613439476        0.03123228281902
C            2.57289124030734       -1.29420885317016        0.03342851594467
N            1.36898695813549       -2.03950757661206        0.00099181728992
C            0.40739320098860       -1.06767143836604       -0.00972527216636
C            0.92642634782688        0.22233478957741        0.01098137594718
C            0.11295724870971        1.39701538231759       -0.00508309344421
O            0.47626287447224        2.57639396311610        0.00015745123765
N           -1.27667071967352        1.07571617821122       -0.03268235318395
C           -2.24062874952138        2.16786334050429       -0.05061157497855
C           -1.81888522540136       -0.17245110568667       -0.04983705571025
O           -3.01621920371341       -0.37470432758884       -0.07466093319971
N           -0.93312787259524       -1.26003301346376       -0.03799565406270
C           -1.40759280584020       -2.61525988423610       -0.05818749035980
H            3.73952098814099        1.25099961754052        1.06179549116026
H            4.01192810086760        1.09127214225174       -0.68362040591614
H            2.69999700602935        2.11860994199596       -0.07311119448435
H            3.56449634874861       -1.66980186484716        0.04654292365370
H           -1.69413764280543        3.10820593190049       -0.02626860357723
H           -2.85140312937928        2.10995509247072       -0.95255833133704
H           -2.90242724767786        2.09249502656734        0.81308048573111
H           -1.05315192231100       -3.13572401588592        0.83520994314887
H           -1.02892738352080       -3.11830284780435       -0.95170174038349
H           -2.49252351762733       -2.58609023927933       -0.07277756854917
H            1.19399479819031       -3.15611946937604       -0.01487813131872
25
 energy: 4.630009968724 xtb: 6.6.1 (8d0f1dd)
C            3.24299712146570        1.18305942359838        0.08736013759595
N            2.31023232431986        0.08466526231340        0.03072411038783
C            2.57266831217536       -1.29367476238888        0.03494195501430
N            1.36996058044360       -2.03827669240331        0.00133959869086
C            0.40718599304275       -1.06797282407016       -0.00992181491391
C            0.92633404384817        0.22230317189259        0.01065407236318
C            0.11349579740450        1.39719959292087       -0.00522321948189
O            0.47628069893562        2.57676108277565        0.00030884796661
N           -1.27650225881553        1.07543588652203       -0.03283548873532
C           -2.24041695497268        2.16748605625977       -0.05064145235110
C           -1.81919862492401       -0.17270847096989       -0.04987283132113
O           -3.01645034537953       -0.37459178462930       -0.07460865756634
N           -0.93340040808911       -1.25996101492771       -0.03808366919128
C           -1.40838845218944       -2.61542721806369       -0.05819080241035
H            3.73956333864577        1.25046366863096        1.06185311131100
H            4.01190404513814        1.09122362102364       -0.68365143357053
H            2.70010850482899        2.11851026741792       -0.07282482629819
H            3.56465406808718       -1.66850776026078        0.04544001721435
H           -1.69404029926459        3.10795756042157       -0.02630379859582
H           -2.85129644806355        2.10981715023526       -0.95256587211120
H           -2.90219971316845        2.09233528152188        0.81312129681397
H           -1.05414999118769       -3.13590399952166        0.83519803645586
H           -1.02995025987799       -3.11855436366219       -0.95168611626805
H           -2.49329616139849       -2.58572667379818       -0.07276717483788
H            1.19611975693161       -3.15688385866611       -0.01473013001365
25
 energy: 4.638211626989 xtb: 6.6.1 (8d0f1dd)
C            3.24304876284077        1.18317756274278        0.08743519999064
N            2.31027087111173        0.08474778982061        0.03059076834838
C            2.57267324589770       -1.29380944139483        0.03642528959924
N            1.37017620973828       -2.03794908423953        0.00150826580052
C            0.40717428425269       -1.06781832951673       -0.01007591231123
C            0.92618892595911        0.22270929684331        0.01053491148290
C            0.11362208513784        1.39722812884610       -0.00530712795176
O            0.47645899476556        2.57711815293458        0.00024149895909
N           -1.27652402364998        1.07517727777769       -0.03289479118747
C           -2.24045113828652        2.16727153240177       -0.05064686269481
C           -1.81906430285513       -0.17271258165643       -0.04985246886263
O           -3.01643488894399       -0.37439628907745       -0.07447345397951
N           -0.93336396073236       -1.26019607479368       -0.03815098875857
C           -1.40862409301726       -2.61549078261093       -0.05822574057856
H            3.73943841704858        1.25078109041630        1.06204360681925
H            4.01217441352582        1.09124792502118       -0.68342336590237
H            2.70021198300003        2.11862779784246       -0.07296750270731
H            3.56456838797044       -1.66887296138464        0.04395810545096
H           -1.69398764199963        3.10773261009665       -0.02630283037107
H           -2.85136472110720        2.10963439874238       -0.95255492844223
H           -2.90223943488393        2.09212441764055        0.81311679148627
H           -1.05446031694084       -3.13622845281482        0.83512015352619
H           -1.03027433825301       -3.11889914283106       -0.95167808529584
H           -2.49359938221255       -2.58509240689830       -0.07278358943031
H            1.19659632957005       -3.15708383173590       -0.01460304684249
