25
 energy: 0.000000000000 xtb: 6.6.1 (8d0f1dd)
C            3.23720163006194        1.16630919979326        0.08434469647475
N            2.29877817382611        0.07527477071623        0.03981603040599
C            2.58028210190900       -1.21425402444508        0.03006176031096
N            1.43813958087363       -1.93419271955128        0.00098261760884
C            0.39035688448383       -1.05887472636071       -0.00790371836672
C            0.93510056364412        0.21347819449412        0.01709077491437
C            0.09450143893243        1.40504303904423       -0.00410947031874
O            0.49712751527797        2.54126714362870       -0.00342325688240
N           -1.25076640035757        1.06271879480407       -0.03085478223738
C           -2.21907211982101        2.15522099834493       -0.05001256985998
C           -1.81739487048744       -0.20012725993278       -0.04692818574614
O           -2.99983886758376       -0.37846417018721       -0.07008878229737
N           -0.92618586207120       -1.30210215599479       -0.03682761578324
C           -1.46982264913417       -2.64643102187190       -0.06029820460571
H            3.71247264356769        1.21471455160235        1.06488849150277
H            4.00791497605742        1.03430808813993       -0.67357694370751
H            2.69910007168542        2.09770118228144       -0.09130154882931
H            3.56654120610678       -1.63682992603973        0.04233140067262
H           -1.67107961066214        3.09322851271934       -0.02552706933167
H           -2.82428953597071        2.09428624779827       -0.95318082946668
H           -2.87644029173232        2.07745725625962        0.81450067533302
H           -1.17061996399332       -3.19584890659852        0.83242232437030
H           -1.14560257411436       -3.17511610292205       -0.95688275822323
H           -2.55549792440841       -2.55659984320617       -0.07459039797972
H            1.38130855184625       -2.94313852034425       -0.01389874181052
25
 energy: -0.882863146935 xtb: 6.6.1 (8d0f1dd)
C            3.23980015990233        1.18426583382933        0.08599447269197
N            2.30279382727522        0.08762060880521        0.03765651715662
C            2.58049229480794       -1.25461778035938        0.02988509569589
N            1.40781152760922       -2.00152923327301        0.00000263424296
C            0.40193769016077       -1.06617903960016       -0.00862761432837
C            0.93013166533826        0.22209532058729        0.01514306324851
C            0.10181253071218        1.40799215135765       -0.00435174861381
O            0.49381955704533        2.57631819786171       -0.00219258681445
N           -1.26035629433387        1.06645578169241       -0.03121627442343
C           -2.23038256466510        2.15765463945379       -0.05012449336198
C           -1.81575855629501       -0.18777915275340       -0.04783323213106
O           -3.01119681362345       -0.37355835564810       -0.07129848167879
N           -0.92649838239515       -1.28855968840956       -0.03723321118848
C           -1.44498627412883       -2.63225915497922       -0.05962975084827
H            3.72502996837146        1.24200837469976        1.06479759037900
H            4.01165879307851        1.06310530071103       -0.67585652039584
H            2.70727326186836        2.12121351788856       -0.08616445736070
H            3.56662442193702       -1.65351820563458        0.04365330579679
H           -1.68442829018353        3.09836549585092       -0.02575565299571
H           -2.83799989567991        2.09873837855660       -0.95305703854595
H           -2.88999274590361        2.08162481536106        0.81405170566043
H           -1.12177356060352       -3.17172136634037        0.83265637768717
H           -1.09724108229530       -3.15185617966042       -0.95454465102921
H           -2.53000858286855       -2.55772255479586       -0.07387680162162
H            1.29365201280549       -3.07912910302927       -0.01504435107440
25
 energy: 9.820472513025 xtb: 6.6.1 (8d0f1dd)
C            3.24200254868448        1.19247261550701        0.08693044575899
N            2.30549716671255        0.09001433902163        0.03461114600094
C            2.57240817004951       -1.29044607434226        0.03060798068714
N            1.37418505489981       -2.06304782060550       -0.00052876023239
C            0.41261332765582       -1.07076282212560       -0.00929768636757
C            0.92638434660316        0.22520042533805        0.01288825730439
C            0.10822626644123        1.40363114328696       -0.00437706887212
O            0.48067094225949        2.58599282291769       -0.00008780778354
N           -1.27134703422077        1.07601403007165       -0.03177312954106
C           -2.24186686097626        2.16602786644906       -0.05036008529304
C           -1.81097881029931       -0.17146575982834       -0.04877043578408
O           -3.01011121789735       -0.36929628743926       -0.07297754366813
N           -0.92566287077383       -1.26552318468544       -0.03759376310118
C           -1.41218842083915       -2.61402087892898       -0.05875437038415
H            3.73606590452268        1.26396810343133        1.06310819684297
H            4.01510016052523        1.09185466478719       -0.67932700146981
H            2.71021290199416        2.13387613642883       -0.07978662460973
H            3.56487495832256       -1.65703674046850        0.04589763857572
H           -1.70077522117556        3.11028399702590       -0.02608102526161
H           -2.85224697840304        2.10550756345144       -0.95230511145891
H           -2.90384010165797        2.08804608943379        0.81281583938421
H           -1.06312415957200       -3.14168625543373        0.83325638240811
H           -1.03914839580582       -3.12305455046926       -0.95189496506241
H           -2.49727772609351       -2.56796492181735       -0.07305197128543
H            1.19254071698009       -3.20955589883431       -0.01611464064005
25
 energy: 18.508334581756 xtb: 6.6.1 (8d0f1dd)
C            3.24272190737835        1.19518969702539        0.08712571652953
N            2.30725736490380        0.09052561896974        0.03302531653867
C            2.56721163829116       -1.30261178379748        0.03180449088653
N            1.35948844674965       -2.08772993488724       -0.00058345482352
C            0.41661960384040       -1.07454891565874       -0.00947512364241
C            0.92560915097186        0.22376173850995        0.01198676770078
C            0.11099485314862        1.40234493081806       -0.00406744642247
O            0.47345900408614        2.58538510128293        0.00125962518200
N           -1.27659424771018        1.08436835842956       -0.03221811271516
C           -2.24663634092127        2.17334180160507       -0.05065155298185
C           -1.81021126269009       -0.16415635828488       -0.04938117217191
O           -3.00891472084045       -0.36941584047002       -0.07422089229867
N           -0.92562410108586       -1.25284801737876       -0.03775168662892
C           -1.39632105085395       -2.60582134725784       -0.05814105896679
H            3.74009754089611        1.27002194614510        1.06168080938863
H            4.01488912974225        1.10423720449569       -0.68167280516350
H            2.70882553637466        2.13745345854765       -0.07614429061932
H            3.56681945110492       -1.65005779156018        0.04724083540481
H           -1.70890596646736        3.11921222450118       -0.02639718300217
H           -2.85782795463142        2.11066708433790       -0.95217396519365
H           -2.90915067163776        2.09310138188828        0.81220378068089
H           -1.03518472960472       -3.12477264298627        0.83460741084951
H           -1.01134854492844       -3.10704023971314       -0.95106008227933
H           -2.48119926497769       -2.57867716214780       -0.07252520157143
H            1.14613989679746       -3.28290191024211       -0.01743682853298
25
 energy: 24.041603707511 xtb: 6.6.1 (8d0f1dd)
C            3.24362352020956        1.19810739814996        0.08728293967909
N            2.30895374971164        0.09333991467468        0.03230789324863
C            2.56672524665522       -1.30165639587881        0.03311905719593
N            1.35729034656980       -2.09235901881385       -0.00039879106094
C            0.41853750837895       -1.07721231227188       -0.00960224789845
C            0.92620567443174        0.22231904272685        0.01156087799886
C            0.11214250142070        1.40292794512758       -0.00405013181855
O            0.47048193641075        2.58403805432534        0.00183281500641
N           -1.27776549651388        1.08822263071752       -0.03253833163413
C           -2.24770509587104        2.17589018397000       -0.05077354902001
C           -1.81047352590464       -0.16280967733877       -0.04961964637087
O           -3.00825824449812       -0.37072583003017       -0.07457337299168
N           -0.92547150035271       -1.24807166207198       -0.03786810210622
C           -1.39372519271444       -2.60305648464550       -0.05793394184571
H            3.74161320409987        1.27190109945069        1.06124011313495
H            4.01474673639945        1.10858134742110       -0.68228584001906
H            2.70905456696311        2.14037530978194       -0.07501604881484
H            3.57021667414887       -1.63952362565596        0.04736399664227
H           -1.71143138364683        3.12220802137573       -0.02655854589714
H           -2.85896169127562        2.11227824559798       -0.95224817231915
H           -2.91005361030951        2.09471482125439        0.81221693759952
H           -1.03096673569462       -3.11880090711043        0.83520424798763
H           -1.00715729077467       -3.10140065273369       -0.95100922889852
H           -2.47782115230327       -2.58139147684973       -0.07232533913448
H            1.13241392239592       -3.32886736900100       -0.01829369251620
25
 energy: 32.367392854023 xtb: 6.6.1 (8d0f1dd)
C            3.24532605937868        1.20257492827657        0.08748612802100
N            2.31086731511290        0.09934520550182        0.03160750105602
C            2.56789237888633       -1.29343816708848        0.03586621105162
N            1.35966393954888       -2.08614863256029        0.00017516742794
C            0.41989760584880       -1.07836066655646       -0.00981675210500
C            0.92710667322577        0.22232292257909        0.01119732630905
C            0.11253592212157        1.40595390820154       -0.00418295199990
O            0.46809099413163        2.58411030569746        0.00232074243072
N           -1.27765069327407        1.09172826208917       -0.03291950767345
C           -2.24825794571957        2.17709221410973       -0.05086737545485
C           -1.81128203998721       -0.16287810779517       -0.04967773759323
O           -3.00779661056570       -0.37127938637480       -0.07446581768672
N           -0.92510758546853       -1.24380717404846       -0.03803538278886
C           -1.39438864733015       -2.60128264030686       -0.05787525349686
H            3.74278235132318        1.27375707651929        1.06134718690667
H            4.01549675266819        1.11098381937830       -0.68218020667866
H            2.71150092084316        2.14490670450084       -0.07492063311973
H            3.57390882525902       -1.62492224343341        0.04603216085970
H           -1.71372667480127        3.12406522170314       -0.02667594085546
H           -2.85949506535237        2.11280689641550       -0.95233903294800
H           -2.91031461284479        2.09521821479043        0.81235525821038
H           -1.03197224775282       -3.11525661083670        0.83534816413967
H           -1.00822704299516       -3.09802450996855       -0.95102173011658
H           -2.47784588572527       -2.58127850307858       -0.07223908963331
H            1.12320998140499       -3.39916043554310       -0.01948453811487
25
 energy: 39.115825246822 xtb: 6.6.1 (8d0f1dd)
C            3.24758841140136        1.20991146475906        0.08755699932737
N            2.31296594923674        0.10853371757979        0.03089134285721
C            2.56798856442710       -1.28329269375919        0.04040959823909
N            1.36156803771697       -2.07954257901848        0.00175653259180
C            0.42345362287580       -1.07785272931707       -0.00979459544453
C            0.92786612346175        0.22568685142076        0.01103072235798
C            0.11329984873210        1.41089547070941       -0.00413288345814
O            0.46363681274998        2.58696828997331        0.00278287111706
N           -1.27798639760763        1.09697606877189       -0.03330167807446
C           -2.24984612022275        2.17911270615983       -0.05100554422520
C           -1.81055830737871       -0.16173207792216       -0.04971349068319
O           -3.00586434762749       -0.37140221301247       -0.07439696943148
N           -0.92342105916119       -1.23643956570572       -0.03823010880489
C           -1.39212020604581       -2.59724144995689       -0.05778057756685
H            3.74449823166431        1.27848661279203        1.06138123564227
H            4.01687447955857        1.11624084137147       -0.68228337788520
H            2.71500555795738        2.15283262665506       -0.07491468740862
H            3.57741298468295       -1.60581913644181        0.04384614117836
H           -1.71794638563357        3.12731280373132       -0.02681202768323
H           -2.86109169152138        2.11347163112455       -0.95247874809313
H           -2.91168106411797        2.09581864187506        0.81240251702551
H           -1.02834113221894       -3.10911938938622        0.83510408793407
H           -1.00456944569914       -3.09216689239799       -0.95045189325321
H           -2.47507194600791       -2.58081781114812       -0.07218569029085
H            1.09855414671367       -3.51779258668539       -0.02264587982045
25
 energy: 33.660374873624 xtb: 6.6.1 (8d0f1dd)
C            3.25368000657587        1.22686367372906        0.08782969012914
N            2.31791382086191        0.13222314551099        0.02980354500137
C            2.56139582657200       -1.25017775273990        0.04703822081583
N            1.36906651257645       -2.04990773061757        0.00565988344679
C            0.43508664859571       -1.07045483533786       -0.00971355852182
C            0.93168318666565        0.23936735085059        0.01068645228547
C            0.11592158977744        1.42645387409444       -0.00378576746669
O            0.45037114564733        2.59262518993085        0.00340344293121
N           -1.27697738762433        1.11210026618079       -0.03399275184542
C           -2.25267614084164        2.18408333337181       -0.05126697125921
C           -1.80650906393490       -0.16120520810959       -0.04968855306754
O           -2.99809218827156       -0.37319034718041       -0.07441667808987
N           -0.91683045072470       -1.21659875567573       -0.03841376843510
C           -1.38524831154979       -2.58799829610051       -0.05742226558719
H            3.74756215675192        1.28605886490463        1.06127664926732
H            4.01862306650835        1.12623641915539       -0.68295303191658
H            2.72103598235657        2.16919206975501       -0.07443263398979
H            3.57889895503468       -1.55900621054516        0.04133148648735
H           -1.72637399134342        3.13414537156207       -0.02706529633820
H           -2.86363066854706        2.11412832724924       -0.95278645393176
H           -2.91388862773548        2.09643858330443        0.81250632900989
H           -1.01751710066112       -3.09595733206486        0.83259799311937
H           -0.99380883163488       -3.07950336166295       -0.94711836152066
H           -2.46671996125183       -2.58315247780935       -0.07195096457009
H            1.02924849413306       -3.82373555958341       -0.03009273980650
25
 energy: 28.367129306272 xtb: 6.6.1 (8d0f1dd)
C            3.25618388316631        1.24036138359732        0.08835853703003
N            2.31563458796147        0.14972760428159        0.03135626763167
C            2.54560337846065       -1.21426556169920        0.04580172699818
N            1.38656332371386       -2.01228986864465        0.00756306843480
C            0.44674659453910       -1.05564940613530       -0.00897962576211
C            0.93537127005753        0.25854204211697        0.01055361620649
C            0.11404749695649        1.44730081900470       -0.00421427334384
O            0.43926477632160        2.60377142689529        0.00422380834268
N           -1.27185287276193        1.12600868344059       -0.03456314923520
C           -2.25438905477881        2.18823753065084       -0.05151133909021
C           -1.79933590827356       -0.16287011520049       -0.04963569744055
O           -2.98859033644967       -0.37105390792858       -0.07420250303469
N           -0.90636053448715       -1.20185912110883       -0.03785306521734
C           -1.37791581382343       -2.58042389920438       -0.05698602141735
H            3.74866013087791        1.29240385256112        1.06085442593018
H            4.01857423040279        1.13329058144012       -0.68255155719984
H            2.72779338926754        2.18483326369122       -0.07395592270036
H            3.56941868553055       -1.51992531214887        0.04089365607654
H           -1.73520369960236        3.14159201326656       -0.02740205165127
H           -2.86528442569395        2.11358437684196       -0.95275381718701
H           -2.91526166945232        2.09582879473840        0.81216270048004
H           -1.00546467478938       -3.08693218773798        0.82900935016692
H           -0.98207216027838       -3.07056885085928       -0.94268150277714
H           -2.45893908535473       -2.58244264503141       -0.07162963959805
H            0.96902315642601       -4.12817289465572       -0.03482309549528
25
 energy: 20.550768653589 xtb: 6.6.1 (8d0f1dd)
C            3.25597750959300        1.24770404208163        0.08770335086633
N            2.30607382872870        0.16050885131267        0.03755276137322
C            2.53062768721735       -1.16408527595668        0.03451848614221
N            1.43447335495631       -1.91643369250023        0.00717079742659
C            0.45165457531045       -1.00732867360171       -0.00771564103011
C            0.93787057962516        0.29955742339632        0.01187466877090
C            0.10057676540039        1.47333392827355       -0.00477568396026
O            0.43909257837741        2.63123341769208        0.00418876395793
N           -1.26272106944153        1.12601448494227       -0.03395825475477
C           -2.25384029131011        2.18526536130069       -0.05130125012971
C           -1.79245748164281       -0.17149346493010       -0.04937759627407
O           -2.98474318028832       -0.36114400449672       -0.07351376657852
N           -0.89419328449329       -1.20529928821889       -0.03673252834218
C           -1.37220853134820       -2.58315595412516       -0.05703890547511
H            3.74586394768892        1.29414767184247        1.06121495187034
H            4.01869156311589        1.12954032079868       -0.68174188001970
H            2.73147505180688        2.19240288281696       -0.07615091147228
H            3.54414587118780       -1.52253708529332        0.04618730868480
H           -1.73573612446780        3.14023356566408       -0.02717636260277
H           -2.86420229800362        2.11037535944533       -0.95241167136696
H           -2.91442004559972        2.09236690982354        0.81192233816036
H           -1.00337347665880       -3.09695224949805        0.82736437947530
H           -0.98040249145835       -3.07971124460776       -0.94169994672945
H           -2.45599990747805       -2.57378572993590       -0.07157300950170
H            0.92998953711849       -4.41172895405374       -0.03749650234310
25
 energy: 19.920035280817 xtb: 6.6.1 (8d0f1dd)
C            3.26183714466702        1.27165925514523        0.08654517332831
N            2.30776277624133        0.18975401167009        0.03961885170244
C            2.53860251838358       -1.12739926138391        0.03395008789001
N            1.46519325357268       -1.86380915054635        0.00506611265740
C            0.45054743003803       -0.97319771914889       -0.00710392879701
C            0.93817457244649        0.33032334285878        0.01380538255847
C            0.08858950170043        1.48769706428932       -0.00307261972542
O            0.43619280119491        2.65181197680596        0.00306799660696
N           -1.25974841688721        1.12365146397990       -0.03251073396872
C           -2.25471033116701        2.18330357936927       -0.05100624260757
C           -1.78699785296130       -0.17401111387161       -0.04840473956563
O           -2.98275009747172       -0.35264148799149       -0.07294807591874
N           -0.89066131998920       -1.21122315789435       -0.03637150312149
C           -1.37051728017368       -2.58365315056835       -0.05760398731771
H            3.74841999234093        1.30818302687035        1.06309615653886
H            4.02432983128802        1.13589532562888       -0.68086822290782
H            2.74098447944565        2.21521666049020       -0.08065170593370
H            3.54176523435442       -1.51908227075291        0.04978546535247
H           -1.73422445067410        3.13800171088969       -0.02669740443465
H           -2.86324667515345        2.10786500301941       -0.95277698548050
H           -2.91398923416152        2.08977443157023        0.81249163962802
H           -1.01133072900210       -3.10576505984599        0.82776142577384
H           -0.98831216760955       -3.08740599346818       -0.94413212663803
H           -2.45607195900853       -2.56004041638525       -0.07188022150437
H            0.88237564652204       -4.68587946855800       -0.04212589796812
25
 energy: 19.737957799499 xtb: 6.6.1 (8d0f1dd)
C            3.26585562235556        1.28683868704589        0.08775773949309
N            2.30993953203236        0.21211927276906        0.03980734049864
C            2.54995756003847       -1.11091664983186        0.03310427782831
N            1.46727099006050       -1.85220510637886        0.00477284468649
C            0.44859088052005       -0.96018063172886       -0.00684327175330
C            0.93800770129142        0.34170184858295        0.01489993525215
C            0.08430112654082        1.49306791797568       -0.00332678107011
O            0.43553668750740        2.65928134203267        0.00131569934385
N           -1.26032527103194        1.12392532384981       -0.03229507002562
C           -2.25658270916779        2.18383315749478       -0.05099520037170
C           -1.78371125041032       -0.17070566759054       -0.04841604663817
O           -2.98075040997147       -0.35006788101676       -0.07262005191136
N           -0.88852443639267       -1.21367762823210       -0.03645563355604
C           -1.36757490692229       -2.58210615474913       -0.05744971487636
H            3.75145398367816        1.31628829426972        1.06540106913554
H            4.02696206014957        1.14075151656310       -0.67940105292418
H            2.74685412215588        2.22931104470333       -0.08045202674725
H            3.54574125951534       -1.51295301360034        0.04612750039677
H           -1.73383889803789        3.13746892017415       -0.02684903149674
H           -2.86388759557824        2.10757643334328       -0.95306349578651
H           -2.91490671235803        2.08969708043047        0.81269259557569
H           -1.01271562247156       -3.10879060638027        0.82806157787218
H           -0.98955121227162       -3.09047528781417       -0.94418425079545
H           -2.45483049152897       -2.55542633922625       -0.07182149666204
H            0.84894265823348       -4.82532727051373       -0.04273355932060
25
 energy: 19.694474581918 xtb: 6.6.1 (8d0f1dd)
C            3.26576983829759        1.28601016549242        0.08722581256563
N            2.30798061449852        0.21484512543197        0.03980349836712
C            2.55130522073527       -1.10821507159264        0.03320366673073
N            1.46593735429610       -1.84739567474132        0.00423419326160
C            0.44786007220193       -0.95633971836850       -0.00668293239988
C            0.93771596443031        0.34381551588892        0.01569908900268
C            0.08314723123440        1.49478529215865       -0.00290030553148
O            0.43586054984817        2.66039149929928        0.00146098990087
N           -1.26092159140388        1.12392773285814       -0.03188165246082
C           -2.25762197438242        2.18403224569712       -0.05089448803027
C           -1.78297636948444       -0.16876215215314       -0.04825789296342
O           -2.97980642830061       -0.35122276140597       -0.07279604770354
N           -0.88665470823641       -1.21490604576021       -0.03650383086972
C           -1.36564924287357       -2.58136126003871       -0.05767214023094
H            3.75142779995366        1.31529577918890        1.06462249983608
H            4.02664699962637        1.13885916281187       -0.67978475513496
H            2.74783447012390        2.22875764986569       -0.08115048142001
H            3.54297390065477       -1.51680216685766        0.04792784693404
H           -1.73428623919170        3.13729767889465       -0.02667254395150
H           -2.86446313868360        2.10746409845369       -0.95305351772818
H           -2.91573848148892        2.08953282187420        0.81268452523164
H           -1.01092930013701       -3.10898207687723        0.82758457221106
H           -0.98777210279443       -3.09045976077966       -0.94429031840531
H           -2.45347015107598       -2.55500348755481       -0.07200035001536
H            0.84804438008820       -4.83653598961365       -0.04287154104878
25
 energy: 19.679912477705 xtb: 6.6.1 (8d0f1dd)
C            3.26526578983358        1.28556542670012        0.08763384858720
N            2.30642139872684        0.21596846159098        0.03978871309541
C            2.55258853246627       -1.10727375666424        0.03250169035160
N            1.46436669379505       -1.84598148916353        0.00393064264663
C            0.44734362201086       -0.95548741409551       -0.00667448897853
C            0.93769258113388        0.34398939478074        0.01597293281847
C            0.08300782743643        1.49506573217067       -0.00326507277768
O            0.43582702710702        2.66039079072696        0.00107083948087
N           -1.26125746954824        1.12306451787269       -0.03198356808397
C           -2.25757837814434        2.18399315714840       -0.05098234886275
C           -1.78270612274691       -0.16720170853883       -0.04839283115181
O           -2.97923899802251       -0.35275999267505       -0.07278036933726
N           -0.88577432868460       -1.21646499880914       -0.03658766378313
C           -1.36612571699156       -2.58093835422587       -0.05746271135826
H            3.75127598450113        1.31552114974263        1.06483718703595
H            4.02642079991184        1.13943900988467       -0.67919899708119
H            2.74853438267171        2.22929803152848       -0.08042697871829
H            3.54181708656073       -1.51938258220550        0.04680598605686
H           -1.73354582451933        3.13686471161679       -0.02683748747770
H           -2.86429949782077        2.10756876334022       -0.95310417070992
H           -2.91541479928104        2.08968246838484        0.81268160713500
H           -1.01235393743218       -3.10935511384818        0.82780865322299
H           -0.98927715073904       -3.09112625643872       -0.94398139532568
H           -2.45401908197855       -2.55388996352755       -0.07175866224771
H            0.85324424768990       -4.83752138312404       -0.04256145838982
25
 energy: 19.676116080144 xtb: 6.6.1 (8d0f1dd)
C            3.26527936973544        1.28483934814022        0.08726648094308
N            2.30588468595763        0.21567556981889        0.03979206034182
C            2.55228175563120       -1.10761113722950        0.03299448987062
N            1.46303950375078       -1.84577733649287        0.00392368338346
C            0.44676881424707       -0.95529242858133       -0.00659073671890
C            0.93764857050993        0.34419198725068        0.01621301701652
C            0.08320054444946        1.49533092562927       -0.00296606201699
O            0.43551474018308        2.66071436419372        0.00134796938179
N           -1.26150878757063        1.12293502243319       -0.03179881417460
C           -2.25779409298275        2.18415363827049       -0.05089958368102
C           -1.78312014133299       -0.16608096678312       -0.04829862143671
O           -2.97949532791948       -0.35285955013413       -0.07282736227194
N           -0.88609189941488       -1.21649914014297       -0.03663724952734
C           -1.36610967218661       -2.58084042468541       -0.05770123036049
H            3.75132563805765        1.31510833028809        1.06452685687436
H            4.02642609030553        1.13839044545680       -0.67960896609607
H            2.74896862203146        2.22896834205621       -0.08114170803737
H            3.54106024914812       -1.52053398411329        0.04749488836636
H           -1.73389322631407        3.13711306235383       -0.02667283889627
H           -2.86443706699298        2.10771244307954       -0.95307346002254
H           -2.91572734159883        2.08979247514481        0.81269039253395
H           -1.01210492175403       -3.10948024103584        0.82749940874366
H           -0.98894678101799       -3.09099831432259       -0.94428312107024
H           -2.45402548752274       -2.55439497406380       -0.07203180173027
H            0.85807083053680       -4.83552885435888       -0.04218379526759
25
 energy: 19.670198146580 xtb: 6.6.1 (8d0f1dd)
C            3.26513949459819        1.28460377719145        0.08759578723138
N            2.30584786962654        0.21502108729045        0.03974323131651
C            2.55157953839183       -1.10834143372812        0.03264678683096
N            1.46181328422900       -1.84596659340922        0.00369415977479
C            0.44626341315298       -0.95528869461628       -0.00672680195537
C            0.93767452900265        0.34433476579311        0.01600969100680
C            0.08361416040800        1.49532108461008       -0.00320143182346
O            0.43524309297964        2.66087077226775        0.00110394084210
N           -1.26154943120391        1.12275252565224       -0.03197576321891
C           -2.25765793669080        2.18419787051339       -0.05098363239675
C           -1.78355533964861       -0.16548478637646       -0.04837970598924
O           -2.97982148492794       -0.35291659224126       -0.07275049767421
N           -0.88663585736126       -1.21620903853421       -0.03667368103412
C           -1.36635696174275       -2.58071233649089       -0.05748595012179
H            3.75110346163843        1.31484906609531        1.06494424481652
H            4.02633014798232        1.13867587202805       -0.67934443163374
H            2.74855899347302        2.22872250535561       -0.08054969926189
H            3.54064602715619       -1.52097542203556        0.04676790008944
H           -1.73368738273688        3.13710490193842       -0.02681424258678
H           -2.86437881995785        2.10774595491135       -0.95312420579118
H           -2.91552012227772        2.08986103810113        0.81269084062253
H           -1.01222617550354       -3.10918679862119        0.82781242593555
H           -0.98919521627682       -3.09096010092986       -0.94404409190366
H           -2.45416124546204       -2.55424797353776       -0.07176039184435
H            0.86314662908751       -4.83474284905551       -0.04216058508384
25
 energy: 19.667385462651 xtb: 6.6.1 (8d0f1dd)
C            3.26532809370214        1.28461419282449        0.08719528322758
N            2.30627399913927        0.21441857111976        0.03981936819120
C            2.55058771370785       -1.10912348904897        0.03311992795022
N            1.46055137741018       -1.84598043056335        0.00396937525263
C            0.44576877824815       -0.95484672586359       -0.00658786154491
C            0.93771806248067        0.34476504647269        0.01614436900485
C            0.08385531982696        1.49542935004194       -0.00286275930782
O            0.43485391399362        2.66118372655993        0.00145772952924
N           -1.26160564822045        1.12287056089676       -0.03182248190830
C           -2.25770678261412        2.18430085372090       -0.05088090714696
C           -1.78395433273799       -0.16536236098726       -0.04829673935431
O           -2.98018747225662       -0.35272057261115       -0.07283534647085
N           -0.88721758731086       -1.21556775672197       -0.03666056720197
C           -1.36640363438096       -2.58064145408881       -0.05776998873969
H            3.75132375876967        1.31510210946955        1.06448136274535
H            4.02645109240216        1.13839541937534       -0.67974140329867
H            2.74851876634417        2.22850283378926       -0.08126436347709
H            3.54038913449511       -1.52072851525040        0.04739132648690
H           -1.73387632623216        3.13726662986794       -0.02663576340450
H           -2.86437888211523        2.10781901164511       -0.95307267698394
H           -2.91569582350832        2.08989529739070        0.81271738585175
H           -1.01225910334292       -3.10912346249997        0.82743751917225
H           -0.98901123862964       -3.09057530698844       -0.94437320777106
H           -2.45418887454601       -2.55440464435940       -0.07215229601074
H            0.86708036331152       -4.83646028201901       -0.04174338864383
