72
 energy: 57.550380796876 xtb: 6.6.1 (8d0f1dd)
N           -1.27840328572630        3.27271534442164        2.54724420465619
C           -1.67797336330970        2.11184063029362        2.14017720720357
C           -2.83959059300550        1.91534372820287        1.37365510853737
C           -3.25533348226694        0.59097952734334        1.03786808331199
C           -4.12282068330859        0.33046189553251       -0.05350981279253
C           -4.50083304136078       -0.94676237003575       -0.41179420143459
O           -5.28563244868126       -1.24455930081757       -1.49724608002066
C           -5.84931586695075       -0.18819746855109       -2.23160849274089
C           -4.05783132091805       -2.05146134675275        0.35009995055745
O           -4.46718686399653       -3.28675023607749       -0.08322561393069
C           -4.19303541008862       -4.40555648209880        0.71808579816641
C           -3.26573129635190       -1.80501727204880        1.46476134355442
C           -2.85956206418567       -0.52623887282485        1.78924143312817
C           -2.14268396801728        1.94268583640532       -2.67108721087442
C           -1.59738950543561        0.70473515382205       -2.08921650487319
C           -0.24865881657453        0.76118019979309       -1.55506132869416
N            0.33647911083293       -0.17255967237945       -0.78077193226344
C            1.70258777746750       -0.02107508121508       -0.34868948503356
C            2.71597507796195       -0.60981446774393       -1.35196702633829
C            4.12359382814196       -0.43243600193012       -0.85271604815231
C            4.80672641447523        0.75484980142946       -1.04463563603202
C            6.10096889771582        0.91999699401939       -0.56499257257693
C            6.73481226597779       -0.10302462774172        0.11581167531358
O            8.00250538018181       -0.05783432191554        0.61023759941043
C            8.77223393130397        1.09875138752853        0.39024801528850
C            6.04258978879806       -1.31739842263375        0.33017240852725
O            6.73910135929688       -2.26755388018766        1.01320615605095
C            6.13831691253530       -3.51934425136427        1.22759320612582
C            4.75313489488582       -1.46020215385497       -0.15159870116009
C           -0.28412667845836       -1.46441873964576       -0.67111802036714
C           -3.72342227766544        3.09084888876558        1.06769049901505
C           -4.14479012847150        3.73361794333780        2.36445779012185
C           -3.04909007293057        4.12260757463671        0.15364382440750
H           -4.47325243406849        1.16078538560836       -0.64330351929093
H           -6.45686530536963        0.47341023898123       -1.60279371963197
H           -6.47414041575695       -0.63555228180742       -3.00477991810212
H           -5.06195067019301        0.39505333486166       -2.71589955254816
H           -4.59387060749743       -4.31553310063360        1.73309202795760
H           -4.68241112577596       -5.24091000541112        0.21916744724226
H           -3.11604708978451       -4.59304260878941        0.77564024783002
H           -2.95658103875952       -2.61951494563033        2.10200428842868
H           -2.28256969121972       -0.38280238984344        2.68730421859118
H           -3.03576969278003        1.88621165146017       -3.26014847211757
H           -1.50985976230501        2.80205866399115       -2.74893786125786
H           -2.29919775219114        0.26795600174413       -1.37788337736419
H           -1.63121930085135        0.02470912898131       -2.94236848651301
H           -1.09597650759512        1.19136608782267        2.30393484884173
H            0.29392966933232        1.68101177359656       -1.65865842183765
H            1.82365996713656       -0.50816368403368        0.62246787975857
H            1.92803695504348        1.03651352288822       -0.20623081129118
H            2.59923513921726       -0.09164466766162       -2.30480642095345
H            2.49230187056482       -1.66864588187966       -1.49979749369476
H            4.33720273998044        1.56637419119331       -1.58037979046464
H            6.61161674046971        1.85613263864048       -0.73141960748573
H            8.32980754424340        1.97522287987334        0.87373193324018
H            8.90529757903479        1.29927951345037       -0.67833967836669
H            9.74272511242821        0.89604070533115        0.84008463518367
H            6.88152230260616       -4.11756513192709        1.75214207132937
H            5.24215590736062       -3.43339043772780        1.85075096546831
H            5.87994172765349       -4.01154668083326        0.28375643278405
H            4.21709675518115       -2.38447817734881        0.00105713699138
H           -0.39909556730639       -1.93266756324019       -1.65526881057383
H           -1.27723427545315       -1.36315866545377       -0.22331693655500
H            0.32598221556386       -2.10902295292868       -0.04508616495783
H           -4.64196381469971        2.74355744981519        0.58970954123649
H           -3.27570754825981        4.11355854359977        2.87764153509120
H           -4.64465716604163        3.00622785239108        2.99956202971709
H           -4.83989098702464        4.52988686806862        2.13513248157483
H           -2.14754640302941        4.50399887424327        0.63173022014449
H           -2.78987765860939        3.65311256800199       -0.79655544532961
H           -3.71040731304167        4.98204461577364       -0.04211434246074
H           -0.52379332745287        3.23363253119606        3.21391178670945
