72
 energy: 56.198347267370 xtb: 6.6.1 (8d0f1dd)
N           -1.29402276060553        3.27725484983954        2.59326939870027
C           -1.69111112137528        2.11679690397426        2.19397982546949
C           -2.85378558726688        1.91083028232900        1.43082728708548
C           -3.25843902519533        0.58726040006257        1.07449739054632
C           -4.10847599868016        0.33792369298248       -0.03432712941346
C           -4.48591711032910       -0.93744249356260       -0.40647785528153
O           -5.27045945134473       -1.22903400510276       -1.49359366386065
C           -5.82315205641947       -0.16696925749206       -2.22661240424618
C           -4.04189999810140       -2.05279597082060        0.34019222614099
O           -4.43975274050648       -3.28656179021824       -0.11143105510424
C           -4.17054530654588       -4.41502384119906        0.68055627562918
C           -3.26025489671795       -1.81788288773577        1.46501964613003
C           -2.86436108732407       -0.54118017506238        1.81224055881524
C           -2.11248956198055        1.92818391892854       -2.75470913513398
C           -1.58586010825722        0.70490626089645       -2.12978424667305
C           -0.24373761705958        0.76272043097365       -1.56753287698601
N            0.33347485158743       -0.16538858498711       -0.79063761476382
C            1.69756392051328       -0.01022593552296       -0.34766635920081
C            2.70604790655782       -0.60598648830709       -1.35149922244256
C            4.11202607431557       -0.42980714752179       -0.85071247708883
C            4.79388670746954        0.75780121841811       -1.04268132926538
C            6.08772963159558        0.92358019653988       -0.56379833137296
C            6.72282231229018       -0.09926467999788        0.11628055773135
O            7.98957506028348       -0.05131847675214        0.61445742130074
C            8.75729164096113        1.10606780804553        0.39351905040883
C            6.03249459180635       -1.31365638800455        0.33028756685216
O            6.72970893687854       -2.26370562301591        1.01533497456061
C            6.12951950114716       -3.51494198610445        1.23055537232145
C            4.74244692464781       -1.45741547270140       -0.15033463326186
C           -0.29187557770128       -1.45370231331602       -0.67785984575563
C           -3.72763580250806        3.08533035614693        1.09988626933197
C           -4.13010305038184        3.78029430812108        2.38020404422553
C           -3.04088659996199        4.08348045295216        0.15815612981800
H           -4.45369810077382        1.17549792200341       -0.61924750683129
H           -6.43766109577680        0.48461041332830       -1.59556322373938
H           -6.43843737169318       -0.60821175054363       -3.01005601106403
H           -5.03267781667878        0.42512263492073       -2.69655228200568
H           -4.58078777041210       -4.34026505784187        1.69361709563964
H           -4.65222584007868       -5.24685455473501        0.16739674938343
H           -3.09325315996554       -4.60136977252076        0.74601987656297
H           -2.95355457155062       -2.63929726508621        2.09479290646200
H           -2.28784560893657       -0.40873544957943        2.71356088527641
H           -3.01045101622526        1.87023263826285       -3.33539288646297
H           -1.49282352518816        2.79668200230642       -2.83040312896617
H           -2.30141236394544        0.31871631809144       -1.39520732125429
H           -1.59095026110819       -0.02705272075436       -2.94644338582836
H           -1.11258157689883        1.20278332768268        2.38486661718807
H            0.29941969172454        1.68229493194951       -1.65715847207261
H            1.80690666636879       -0.49841852197129        0.62276265908880
H            1.91604369928792        1.05010271556441       -0.21010408925295
H            2.58809599454186       -0.09467108345172       -2.30744497564618
H            2.48305198823474       -1.66432011976847       -1.49356072122666
H            4.32349444354329        1.56916822982071       -1.57787019149752
H            6.59625371985946        1.86064219028075       -0.73040366758485
H            8.31434645277463        1.98281111202963        0.87646214761011
H            8.89049886528507        1.30634980485718       -0.67515876501688
H            9.72692292540743        0.90219468984041        0.84415077397757
H            6.87483611909985       -4.11008910609048        1.75504941329675
H            5.23288787424132       -3.43061227352546        1.85368192089446
H            5.87237468683673       -4.00829557746932        0.28699958997488
H            4.20781866212442       -2.38254043944041        0.00268856784793
H           -0.40175153645637       -1.91722649872727       -1.66183796067486
H           -1.28487279915965       -1.34908037973060       -0.23113784803001
H            0.31532955622437       -2.09856492767113       -0.05013217216001
H           -4.65161001958249        2.73468035822786        0.63298921483711
H           -3.25102483017894        4.16702853995605        2.87347426991694
H           -4.63321426576162        3.07840772532110        3.03468695821786
H           -4.81354473329147        4.58056407222722        2.13430379107225
H           -2.14286347825223        4.46723295498518        0.63663491104092
H           -2.78189119028612        3.59238775162237       -0.78071687216926
H           -3.70160473545823        4.93683596898024       -0.05187502896676
H           -0.50977377811118        3.26109367652601        3.22665258677984
