72
 energy: -2.807565902606 xtb: 6.6.1 (8d0f1dd)
N           -1.52006730311408        2.89424467970042        2.27647080632028
C           -1.55392438799111        2.15875056227957        1.25585632448225
C           -2.72342087717443        2.04357924156506        0.32396618315265
C           -3.30831172368614        0.64772478072687        0.43143655432987
C           -4.28309918762901        0.26378486966348       -0.49367867942710
C           -4.80365201434341       -1.01142057868686       -0.50876591291168
O           -5.74077772802212       -1.46064257066093       -1.39066397127212
C           -6.31422647632946       -0.54728699749535       -2.28897370007589
C           -4.35092769267987       -1.95998538465348        0.43284543896658
O           -4.91967862521878       -3.19657554753354        0.33090962414708
C           -4.59537725316511       -4.15378341159820        1.30363204682385
C           -3.40894119883538       -1.57423451501881        1.36745309200698
C           -2.89489322523302       -0.27996361496467        1.36648090197674
C           -2.27098525263702        2.16519596336143       -1.22064124566750
C           -1.33577012858846        1.06771228599313       -1.71998096192218
C           -0.03279958269538        1.08514343513725       -1.01448796111662
N            0.59290508794292       -0.08093321352623       -0.57964933296099
C            1.96795849297663       -0.05116705443850       -0.19284642558463
C            2.91447774165445       -0.56233854091712       -1.30357734089771
C            4.33641390671397       -0.44212880013585       -0.86029869815641
C            5.04237153798008        0.73034690237777       -1.05172158433297
C            6.34672034081554        0.85449014317549       -0.59292701304968
C            6.96187365433659       -0.19275828774613        0.07088162796316
O            8.23986635322083       -0.18538620186971        0.55138466423318
C            9.02709630300444        0.95598107388947        0.33316766653399
C            6.24080113634710       -1.38795718371363        0.28899928249161
O            6.92407928255776       -2.36562919313810        0.95247000587811
C            6.29023420554672       -3.59997901648338        1.16390079115996
C            4.94181205854365       -1.49254130294565       -0.17290821930049
C           -0.08066051738565       -1.34484287552958       -0.62697501358355
C           -3.84401448897224        3.07443565230144        0.63314974344373
C           -4.45002520441465        2.90773410746764        2.02188170469320
C           -3.33345210703262        4.49753006675969        0.46563521696376
H           -4.62862055390212        0.98094930338227       -1.21779199211800
H           -6.79130239482163        0.29168398744957       -1.77146039240532
H           -7.07275556370165       -1.10497686290162       -2.83524949140525
H           -5.57399541563171       -0.16671335300954       -2.99948636835002
H           -4.83953131563479       -3.80611218797709        2.31150432562517
H           -5.20029877668023       -5.02726078881967        1.06622124588924
H           -3.53526990367416       -4.42489051215305        1.26548762039482
H           -3.04910922472894       -2.27668360839874        2.10150283336552
H           -2.16651263867564       -0.01736997081928        2.11936802222638
H           -3.13474845744303        2.19499807166482       -1.90249632478761
H           -1.69231571124269        3.09361111536059       -1.38071836632320
H           -1.86395349447198        0.11838998164976       -1.57791144428721
H           -1.17439070633474        1.24270293783961       -2.80155598150862
H           -0.71217908203852        1.55501389795666        0.88282952782904
H            0.62098751950271        1.95030869223888       -1.08676272294043
H            2.09813599201555       -0.66200791647677        0.70167404185521
H            2.24647588331190        0.97490304243763        0.06328333612250
H            2.73844532874466        0.04411022800915       -2.19197926804979
H            2.66274617308200       -1.60017708934350       -1.52829224895166
H            4.58017886277886        1.55874004890869       -1.56680934044143
H            6.88046846673550        1.77555231050610       -0.76849330625917
H            8.60245959019090        1.83648467156414        0.82566500812276
H            9.15609782009582        1.16436854610265       -0.73508939995793
H            9.99837819574809        0.73250065025196        0.77304719892955
H            7.02512473230835       -4.22528664520697        1.66925638160495
H            5.40724636660186       -3.49499097603105        1.80287224388073
H            6.00078196068207       -4.07683598203926        0.22055889125066
H            4.37562889662769       -2.39661633759558       -0.01196814377344
H           -0.24228786386275       -1.67893515737425       -1.65757009003350
H           -1.05327510143466       -1.27270742959575       -0.13144480315854
H            0.52368059142157       -2.08545410319560       -0.10681650342558
H           -4.66435566143583        2.90953399648272       -0.08021773174780
H           -3.68452613373041        3.08399750850308        2.76523088071714
H           -4.85834239913616        1.91071155764945        2.16304068940283
H           -5.26014447842102        3.62208294320978        2.15303425425598
H           -2.52868870367216        4.65834843551195        1.17528977082173
H           -2.97209697551519        4.66773652219083       -0.54244169898964
H           -4.13552321023231        5.20272989284278        0.67118170165765
H           -0.65279607076415        2.84178521506286        2.80732658595219
