72
 energy: 43.595436185220 xtb: 6.6.1 (8d0f1dd)
N           -1.51534664767613        3.05609436791988        2.39895574798038
C           -1.56759662871206        2.16338292958536        1.49184505064597
C           -2.70891661897954        2.01255884969935        0.56933732883483
C           -3.27596505296622        0.64263738843281        0.59838881040697
C           -4.23830627014502        0.28820501636728       -0.36001247725473
C           -4.71710021891829       -0.99460157415731       -0.47613197016887
O           -5.60914486687654       -1.40295945529413       -1.42712112686322
C           -6.17856435540766       -0.44063710985563       -2.27544466183729
C           -4.26410669073601       -1.99123076837289        0.41251438462657
O           -4.79023509191309       -3.23853690092997        0.20644873207864
C           -4.47669347808231       -4.24091048428219        1.13468291613180
C           -3.37025284761056       -1.63465758132018        1.40799295429063
C           -2.88815379784665       -0.33113923323213        1.50396064608654
C           -2.30652108354145        2.04957610474326       -1.52745787538924
C           -1.46013096661270        0.86944609420221       -1.79356607444987
C           -0.11543468816693        0.94685533997236       -1.19859478649292
N            0.51867045398173       -0.15502985470771       -0.66903813834273
C            1.89058430543065       -0.06976181904231       -0.25284078561070
C            2.86358798298888       -0.59211952530836       -1.33349824199892
C            4.28017150206733       -0.44821718089810       -0.87353580020788
C            4.97593482779389        0.73266866682073       -1.05634308524422
C            6.27512874346058        0.87374821778535       -0.58157777499553
C            6.89737792556227       -0.16556383661823        0.08900210388822
O            8.17264577127553       -0.14414552665279        0.57696385713998
C            8.95486656684327        1.00066688359944        0.35225160217872
C            6.18482098202092       -1.36699835083260        0.30427517612916
O            6.87098384915425       -2.33610064093754        0.97842689452137
C            6.24619865107290       -3.57627277843772        1.18387266193826
C            4.89014447566254       -1.48614333780920       -0.17183694859581
C           -0.13840746864669       -1.42300888712921       -0.64281506069406
C           -3.78908187037702        3.09379634827597        0.73527514634961
C           -4.36639207931294        3.14679630039042        2.14420581221594
C           -3.23186675931190        4.44720407285561        0.32147970787913
H           -4.58139972834170        1.04064512032054       -1.04713530309579
H           -6.69437209282662        0.34877591425619       -1.71788914101343
H           -6.90314738872632       -0.96573509178624       -2.89619247860042
H           -5.41989515180868        0.00302689213759       -2.92651171212506
H           -4.76293364692016       -3.96361518713248        2.15255421528675
H           -5.04422861358364       -5.11810454461223        0.82644487827071
H           -3.40806321295539       -4.47423538141503        1.12053026886279
H           -3.01876744180586       -2.37289771190733        2.11179559199750
H           -2.20030498973323       -0.09654004974962        2.30246405617940
H           -3.16587451753442        2.03324788013361       -2.22183730947405
H           -1.67942183712839        2.90276876758271       -1.72486542181500
H           -2.03327032614397       -0.01587236984769       -1.47842111656309
H           -1.40226419746235        0.92090481181699       -2.89856018970798
H           -0.78164951260075        1.41338514059389        1.31320618166317
H            0.54029267945097        1.83325406419424       -1.31974183520203
H            2.01341511495922       -0.63311850884529        0.66998507471914
H            2.14526440504987        0.96937134158330       -0.02034953480157
H            2.69811176653732        0.00233753387083       -2.23133353448140
H            2.62279198585083       -1.63674956200760       -1.54218322576966
H            4.51000858535349        1.55535993946368       -1.57692872657714
H            6.80247085319673        1.80134702939353       -0.74739455394944
H            8.52290342843393        1.87926520814053        0.84009990912331
H            9.08294103896474        1.20452218757194       -0.71712907471741
H            9.92977356411324        0.79154802870313        0.79248237449448
H            6.97845609162510       -4.20015599026058        1.69534060358848
H            5.35778977111878       -3.47470721088540        1.81473204552380
H            5.96679109138843       -4.05384830532639        0.23775064945328
H            4.33003306461212       -2.39433965037519       -0.01343118866947
H           -0.28198123829106       -1.78239806635297       -1.66422059233065
H           -1.11515887770648       -1.32641373363168       -0.16276122952097
H            0.46112968251185       -2.13715658967329       -0.08320258660651
H           -4.65819044194205        2.84793644603649        0.10606854117583
H           -3.57172714525650        3.39392427916748        2.82830324885418
H           -4.80636205972515        2.19860923883792        2.44532266939580
H           -5.15065956892422        3.89756519674563        2.18209015232401
H           -2.40485511340216        4.65731036980966        0.99122611242438
H           -2.88597305380070        4.41627431960653       -0.71066374226267
H           -3.99326786360564        5.21914221431774        0.43816965949977
H           -0.67858995875040        2.96805530171982        2.96884704686361
