72
 energy: 29.575800101437 xtb: 6.6.1 (8d0f1dd)
N           -1.53072981469900        3.03536628148677        2.36564005054682
C           -1.56052605175979        2.17738551877100        1.42972435625386
C           -2.70398911626928        2.02093355253756        0.47915364118059
C           -3.28315807011819        0.64247466029734        0.56289195902121
C           -4.24834621567775        0.28265603962929       -0.38713016029369
C           -4.73566932687328       -0.99889524961294       -0.48304374960842
O           -5.63595585047689       -1.41541117615514       -1.42064789156371
C           -6.20611142960372       -0.46203455243389       -2.27866182329092
C           -4.28190465882847       -1.98533660248438        0.41678385780015
O           -4.81618863408821       -3.23055693187198        0.23103579289291
C           -4.50041285646852       -4.22387417234719        1.16870332088892
C           -3.37996252360523       -1.62107983981996        1.40108107870836
C           -2.89127145906169       -0.31741396319229        1.47717836651916
C           -2.30822348349340        2.06100829611721       -1.42312354669508
C           -1.43774947971824        0.90794859240770       -1.77943304429293
C           -0.10219483652308        0.98467429245787       -1.15989332607174
N            0.53288405832360       -0.14039030810154       -0.64683478502043
C            1.90574993952860       -0.06738315773974       -0.24116532573339
C            2.87490742717605       -0.58695991830691       -1.32865943719040
C            4.29194061297538       -0.44778212398942       -0.87271701762688
C            4.98974718074531        0.73194855791945       -1.05598361616654
C            6.28960168247028        0.86994477769877       -0.58356868960726
C            6.91040944219059       -0.17108096772512        0.08563259836368
O            8.18681480894815       -0.15227322664890        0.57265167044579
C            8.96960410520365        0.99172851899607        0.34857953446117
C            6.19615595215566       -1.37108058372008        0.30123538458796
O            6.88192281608524       -2.34214645320790        0.97392465639054
C            6.25514898536988       -3.58100885085233        1.17974602090724
C            4.90092173073513       -1.48769807518074       -0.17270096925553
C           -0.12644059571103       -1.40738489394676       -0.63968674253315
C           -3.79911531152462        3.08766769014099        0.70893774830656
C           -4.38103537287288        3.09495029776264        2.11868768424250
C           -3.25261355366452        4.46023257830343        0.34838687383858
H           -4.59127531748018        1.02793822864975       -1.08216629575142
H           -6.71398038569079        0.33723310596933       -1.72805660106356
H           -6.93789690916308       -0.99363339270489       -2.88495055897244
H           -5.45111814219673       -0.03057352736828       -2.94211144555620
H           -4.77848523756539       -3.93152042017483        2.18459128549550
H           -5.07541324216694       -5.10100679326515        0.87515431416599
H           -3.43331253693454       -4.46403245214366        1.14960653608170
H           -3.02482213763403       -2.35274994718249        2.10960709620154
H           -2.19315227616045       -0.07842316923434        2.26546319017149
H           -3.16556865823032        2.04996906027734       -2.12715275545677
H           -1.69570950114148        2.92978654316122       -1.64046451077519
H           -1.99116039560266       -0.00203851465629       -1.50295932651936
H           -1.36645053061720        0.99552351979966       -2.88282098290273
H           -0.76555054250312        1.44286926096948        1.22674663188263
H            0.56061305541723        1.85972065246139       -1.27736477863488
H            2.03150467230653       -0.63992333022569        0.67632091481073
H            2.16550336009631        0.96929602872982       -0.00366405409498
H            2.70579477017125        0.01073516106403       -2.22360271411252
H            2.63169631536631       -1.63012809892272       -1.54096698531748
H            4.52425373421917        1.55571480011229       -1.57523767393380
H            6.81849865844162        1.79633596607236       -0.75065984472062
H            8.53894786322063        1.87074019197597        0.83719919658070
H            9.09761261156518        1.19642746366702       -0.72070040542385
H            9.94417473443443        0.78039273829947        0.78844278041585
H            6.98759977565395       -4.20572857623689        1.68991006442665
H            5.36765175450661       -3.47882596704841        1.81200003598827
H            5.97374393807607       -4.05806922678334        0.23392992721655
H            4.33922966743465       -2.39480893302739       -0.01371458449321
H           -0.27331109470081       -1.76229194123890       -1.66323101476897
H           -1.10263709778293       -1.31684141121802       -0.15655354402460
H            0.47404300421690       -2.12712441222161       -0.08766519568220
H           -4.66250529386352        2.85879045786551        0.06624908230655
H           -3.59362825617543        3.33094347903153        2.81604539354046
H           -4.81724116144727        2.13665973427193        2.39143412515066
H           -5.17093603314179        3.84019608434928        2.17632839571363
H           -2.43061002906217        4.65821019706392        1.02787780498470
H           -2.90085348540126        4.47102707691256       -0.68071945325411
H           -4.02216740435075        5.21952244067235        0.48456829578928
H           -0.68902073431119        2.94764978024779        2.93285978466267
