72
 energy: 54.857165729588 xtb: 6.6.1 (8d0f1dd)
N           -1.48828501932012        3.04479783984847        2.43103805602772
C           -1.56967192918757        2.13574682673607        1.55026929441161
C           -2.71596147976866        1.99904330567203        0.66892207055839
C           -3.26920632745838        0.64169175569463        0.63494828389298
C           -4.22787130667392        0.29320393411991       -0.33322187774903
C           -4.69796456890786       -0.99047099301445       -0.46943604843243
O           -5.58172704205055       -1.39042787955493       -1.43365966217728
C           -6.15032718529524       -0.41927556462152       -2.27224640723069
C           -4.24602095673833       -1.99734656444836        0.40807408499787
O           -4.76403982608638       -3.24651341924334        0.18177838531315
C           -4.45295091205722       -4.25757923003528        1.10078923568279
C           -3.35967204652918       -1.64947214978015        1.41431021063676
C           -2.88395534884674       -0.34714595019802        1.53036908110582
C           -2.30276053263970        2.04223102985660       -1.64663242004040
C           -1.48408337554114        0.83336187622095       -1.80614218756161
C           -0.13162155336563        0.91425960970088       -1.24017270255820
N            0.50382163970552       -0.16154812800113       -0.69393649383580
C            1.87476693164461       -0.06948688996547       -0.26521788927670
C            2.85178214355601       -0.59670600905688       -1.33826693699238
C            4.26783490995538       -0.44841119839450       -0.87393818797206
C            4.96178665740381        0.73354510595246       -1.05655950021566
C            6.26033070334324        0.87764501495565       -0.57970150647218
C            6.88402773220210       -0.15994714953072        0.09232921077818
O            8.15820035713334       -0.13597913872008        0.58111567213717
C            8.93984887509690        1.00957867824955        0.35573729789163
C            6.17313122834689       -1.36275509143018        0.30746239491048
O            6.85970779866882       -2.32993832212670        0.98298542042011
C            6.23681381276668       -3.57133488144034        1.18812423153339
C            4.87895366545840       -1.48440446547343       -0.17053167014150
C           -0.14967018458432       -1.43419973926040       -0.64636738985247
C           -3.77640537909189        3.09714170661798        0.76264762490616
C           -4.35108095568697        3.19893203114772        2.16806882617558
C           -3.20948566276436        4.43087954133598        0.29570416173974
H           -4.57073825054482        1.05288850672327       -1.01267508543791
H           -6.67378847744486        0.36046128339113       -1.70808080102516
H           -6.86784325300744       -0.93770745690211       -2.90687947086260
H           -5.38804773953558        0.03617004676808       -2.91085634458397
H           -4.74720005650261       -3.99505165158037        2.12034879880170
H           -5.01343613060009       -5.13430277423408        0.77798183810274
H           -3.38296996797078       -4.48483335348581        1.09176117376312
H           -3.01169257064254       -2.39427874718056        2.11307429042071
H           -2.20686688566151       -0.11656903378974        2.33899807416358
H           -3.16439480910336        2.02651683591425       -2.32615747855344
H           -1.66053454328719        2.88129477756572       -1.81439014810465
H           -2.06905735791837       -0.02889458168505       -1.44434255164400
H           -1.43867940032514        0.84009243543215       -2.91129901655356
H           -0.79386376393172        1.37561608859816        1.39217243970555
H            0.51983560873190        1.80910132786985       -1.36251909156034
H            1.99393542681535       -0.62500260105988        0.66256540631234
H            2.12621753474214        0.97113855665687       -0.03690211074005
H            2.69068313150931       -0.00625552722684       -2.23959515755438
H            2.61323943467633       -1.64286072486095       -1.54272048001655
H            4.49545399214942        1.55517364556778       -1.57841528387831
H            6.78608292451424        1.80640389093961       -0.74453535580730
H            8.50678658476914        1.88787104800141        0.84283545565018
H            9.06801717265245        1.21256000436683       -0.71375218356247
H            9.91499919991639        0.80236671818284        0.79632897473425
H            6.96896496907366       -4.19431888562337        1.70080965111236
H            5.34751658181257       -3.47045938877509        1.81766810131672
H            5.95936284981179       -4.04944175910684        0.24171146126704
H            4.32061364039065       -2.39374447387334       -0.01253668698524
H           -0.29066700597374       -1.80086770207173       -1.66470745645840
H           -1.12739296028015       -1.33408660435190       -0.16885585177973
H            0.44827252009273       -2.14367284395719       -0.07889062955787
H           -4.65209261987893        2.83883147942106        0.14545584499848
H           -3.54978983388546        3.45629104684738        2.83959628547587
H           -4.79526821222755        2.26171325963026        2.49635806695764
H           -5.12974866069179        3.95480359079888        2.18497686462992
H           -2.37815083290922        4.65564230725671        0.95532278058869
H           -2.86997258387969        4.35916711659973       -0.73830177680507
H           -3.96371413602841        5.21469291533074        0.39143827481746
H           -0.65496221238676        2.98160342361408        3.00131616445276
