72
 energy: 62.247456994350 xtb: 6.6.1 (8d0f1dd)
N           -1.26950587626823        3.27980272309456        2.45047814170097
C           -1.65800762386017        2.11660735462701        2.03021878924812
C           -2.81582841278496        1.92642788184528        1.25883803434369
C           -3.24670862297779        0.59930058954046        0.96508966984059
C           -4.14615733715371        0.31873109334546       -0.09488452288481
C           -4.53981051850893       -0.96020633939814       -0.41128990027005
O           -5.33263586383519       -1.27854549637504       -1.48717689562772
C           -5.90072972056944       -0.23319823053867       -2.23780746013844
C           -4.09195823528821       -2.04621541852426        0.37142713663799
O           -4.52039911177141       -3.28307555556818       -0.02862225777651
C           -4.23689549026967       -4.38603760850724        0.79235171011789
C           -3.28086361967579       -1.77699150640794        1.46527101613997
C           -2.85705238532957       -0.49224714976396        1.74996344141926
C           -2.18764212359401        1.96675469321953       -2.49641334433017
C           -1.60240610017528        0.70128125842284       -2.00745561424162
C           -0.21250967796860        0.71111216495812       -1.58141308900671
N            0.34075817816398       -0.17558854829205       -0.72251874264354
C            1.72578083226711       -0.03874876140764       -0.33189866666076
C            2.73729796734337       -0.61176782071594       -1.34989631332950
C            4.14786983618752       -0.43600040588406       -0.85489103884115
C            4.83399058214452        0.75023385021685       -1.04654353627710
C            6.12928539110598        0.91273275823295       -0.56676147293396
C            6.76174568157016       -0.11236408121929        0.11388388325416
O            8.03207375434103       -0.07102797089932        0.60481433983279
C            8.80307451642797        1.08417417962368        0.38332676856593
C            6.06620938110679       -1.32575789749351        0.32822674882229
O            6.76206835364813       -2.27961656700091        1.00853859902586
C            6.15629289457584       -3.52880787792845        1.22342158664250
C            4.77577822587227       -1.46517025124683       -0.15369927762535
C           -0.26742463337002       -1.48030584383898       -0.65602170377836
C           -3.72085038112623        3.09648705072711        1.00267966077066
C           -4.17936453480379        3.63853217645142        2.33097539306728
C           -3.06914934221081        4.19284313136572        0.14758568581100
H           -4.49955980396376        1.13471541160355       -0.70318477851132
H           -6.49348498309679        0.45372841938449       -1.62271004085192
H           -6.54700555484827       -0.69127726974593       -2.98527806623878
H           -5.11455530711038        0.32473093822746       -2.75235085313659
H           -4.61269833405809       -4.26645102609717        1.81328747053140
H           -4.73832890174557       -5.23343216930130        0.32580930660963
H           -3.16113930825518       -4.57439591161613        0.83233790982138
H           -2.96319830018015       -2.57976490360950        2.11261882371954
H           -2.26168934934192       -0.33035112693371        2.63204606542611
H           -3.07438070037509        1.91796801256664       -3.10350262458619
H           -1.53121496812354        2.80757897616655       -2.58342889363878
H           -2.27864637003673        0.17336876145764       -1.34098115115899
H           -1.64995855939150        0.16269631010617       -2.94796874969679
H           -1.04776956434119        1.21540398973544        2.14037218980824
H            0.32156462605806        1.65915443306658       -1.66936372047362
H            1.84021284141675       -0.53678999374828        0.63220262165321
H            1.96016312335588        1.01545233209941       -0.17603144988324
H            2.61804394497547       -0.07886814779534       -2.29527129790419
H            2.51540836100900       -1.66945632795087       -1.50963733948694
H            4.36572398450299        1.56268753167724       -1.58216835634960
H            6.64276577038371        1.84761057317897       -0.73371853117209
H            8.36141177721837        1.96043156956492        0.86710236265549
H            8.93448220350355        1.28463387200959       -0.68554344393326
H            9.77563564927550        0.88403050045080        0.83066406164355
H            6.89543180058189       -4.13383618079073        1.74672574769528
H            5.26150796279597       -3.43717708089540        1.84725357121602
H            5.89404862248366       -4.01897002265172        0.27949140579942
H            4.23602720730295       -2.38744779051541       -0.00164959440751
H           -0.37103482744973       -1.92920828059195       -1.65096164822196
H           -1.26235064754656       -1.38424700382993       -0.21644272140978
H            0.33283262734836       -2.13754593726716       -0.03396689527139
H           -4.63964200629304        2.76408359861798        0.50731320778108
H           -3.33140592985258        4.00529837869097        2.88059906967301
H           -4.66976482109711        2.86269509306866        2.91549023901056
H           -4.89593349531257        4.42785033593970        2.14714172721092
H           -2.18255141507009        4.55513765642011        0.65655551549498
H           -2.80053547348458        3.78103208144474       -0.82044665851205
H           -3.74241229519015        5.05597140268328        0.00740880064856
H           -0.56628041926828        3.21994936190565        3.16581047780730
