72
 energy: 65.320387304465 xtb: 6.6.1 (8d0f1dd)
N           -1.31136633609511        3.24066954703163        2.43248811076404
C           -1.62265003186886        2.10386842672031        1.92695201988375
C           -2.78169968416383        1.93465854855262        1.15152503395398
C           -3.23972777422270        0.60914640223095        0.89043352364321
C           -4.16361677482847        0.31294859105507       -0.14521628092493
C           -4.57428042862874       -0.96822923141791       -0.42242285008974
O           -5.39139584951112       -1.30332969144733       -1.47219213121522
C           -5.95544081323732       -0.27410948793824       -2.24485075962122
C           -4.12373429772601       -2.03777932824627        0.38056691424921
O           -4.57393042289601       -3.27715708530227        0.02113500349746
C           -4.28213641336574       -4.36007461849611        0.86405108957152
C           -3.29827255288897       -1.74871449760116        1.45831624807811
C           -2.85920068772253       -0.45975115877717        1.70630959217276
C           -2.22500744032812        1.98496287983247       -2.32277817919006
C           -1.60153455679421        0.70318882226229       -1.91736213569987
C           -0.20207413236981        0.73472272627776       -1.51138192831611
N            0.37216809124273       -0.17993844477212       -0.70754209296649
C            1.75819865502360       -0.05003986958432       -0.31841813951606
C            2.76269815760660       -0.61123138702128       -1.34994683135519
C            4.17451937479583       -0.44015656063630       -0.85890051967013
C            4.86218520886708        0.74545343444045       -1.04950045333671
C            6.15822743144756        0.90476369257465       -0.56981421440141
C            6.78875390657935       -0.12234092513985        0.11059479162349
O            8.06057035187093       -0.08529724841520        0.59851709747971
C            8.83394764266659        1.06813576171200        0.37651059941565
C            6.08994490452215       -1.33414662966157        0.32564550178662
O            6.78461714021388       -2.29115024852089        1.00300425834354
C            6.17517222891539       -3.53859612892478        1.21744020856776
C            4.79864631511483       -1.47043696157853       -0.15585958250922
C           -0.24373938484299       -1.47614968073085       -0.65577777889177
C           -3.71905798820519        3.09585510617544        0.94385951416855
C           -4.21815690458907        3.54508240946404        2.29361667627640
C           -3.09375095098471        4.25651387255571        0.15878104407220
H           -4.52053521863318        1.11593696566914       -0.76866782507799
H           -6.53256020088533        0.43690775707613       -1.64478244350753
H           -6.61987904668000       -0.74552760436374       -2.96576682649547
H           -5.17082106867011        0.25751540526992       -2.78766271151432
H           -4.63685020295135       -4.20963089843673        1.88782733172502
H           -4.79651616578702       -5.21555294690617        0.42923267751178
H           -3.20781814729987       -4.55549239514841        0.89007327317786
H           -2.97327182451681       -2.53936340259205        2.11579274986479
H           -2.24858024781198       -0.27876256355765        2.57338650167935
H           -3.10245287670059        1.94887689248354       -2.94440222023105
H           -1.55810982937691        2.81085410280441       -2.42045113399073
H           -2.25323540202049        0.10019650857816       -1.28860462694238
H           -1.63373609142976        0.31182246037713       -2.92912693052887
H           -0.98066083806430        1.20368279764729        1.97987510894316
H            0.37980901054971        1.65897484375558       -1.61598115180928
H            1.87361425926539       -0.56140577966382        0.63731639328036
H            1.99617797297105        1.00069510138306       -0.14576943913752
H            2.63694617169771       -0.06374684145366       -2.28547104018086
H            2.53732329400347       -1.66633766738093       -1.51973712256683
H            4.39475020219640        1.55905109395219       -1.58422018991867
H            6.67460329159342        1.83801499182689       -0.73750863123398
H            8.39382478905155        1.94465758319503        0.86077853149452
H            8.96454721703688        1.26867462051244       -0.69249673896919
H            9.80738373553449        0.86728865089457        0.82229644470906
H            6.91232362512710       -4.14804439145199        1.73885018969521
H            5.28182673684891       -3.44359878772211        1.84251811483943
H            5.90966229658784       -4.02683445133583        0.27332521261545
H            4.25512769897977       -2.39040013344511       -0.00335493818815
H           -0.35085781344296       -1.90460948185296       -1.65638381738655
H           -1.23322868902870       -1.37798039494814       -0.20675307184620
H            0.35975231736135       -2.13549368343067       -0.04325158138700
H           -4.63706763060655        2.77477876035481        0.42703722678835
H           -3.38697271678565        3.89241331746420        2.87765503123261
H           -4.69579495779035        2.72474681912879        2.82160358997981
H           -4.95173237555795        4.32624298263752        2.15353165900878
H           -2.22248683777793        4.60161748749221        0.71016368655308
H           -2.80793704842164        3.90980667064911       -0.83441968788853
H           -3.78604958583394        5.11014624262252        0.07890445890858
H           -0.60282205114180        3.17424882063892        3.13955315272445
