72
 energy: 67.699321510695 xtb: 6.6.1 (8d0f1dd)
N           -1.35088813516958        3.23186661332865        2.42380227176427
C           -1.59231709246638        2.12429049498409        1.82616665935481
C           -2.75141130063101        1.95357765115322        1.04330964712742
C           -3.23807849657731        0.62203532249899        0.81744864605071
C           -4.17753768424380        0.30850433652160       -0.19798161977299
C           -4.60406696336174       -0.97450568338457       -0.43830171494913
O           -5.44773687445701       -1.32507506770178       -1.45862088108774
C           -6.01088959710041       -0.31344880548539       -2.25254161993819
C           -4.15652038433845       -2.02702553752774        0.38777797181513
O           -4.62890545015752       -3.26950738760550        0.06935222060690
C           -4.33058114185864       -4.33339003271855        0.93284073674695
C           -3.31129363971133       -1.72125786092650        1.44415080915965
C           -2.85959219413118       -0.42882706464350        1.65469058624311
C           -2.25764028548742        1.99768352158890       -2.14775769952053
C           -1.58205103223643        0.72124706372070       -1.84602715859633
C           -0.19402275867239        0.78026164866955       -1.42971892666709
N            0.41274628035697       -0.18959406126982       -0.73434028328399
C            1.78979341833635       -0.05957297752609       -0.30874786655299
C            2.78961730192944       -0.60949921404411       -1.34796515515179
C            4.20214851196637       -0.44321540165934       -0.86229914739182
C            4.89086210524963        0.74152852265095       -1.05163065218246
C            6.18756673855722        0.89699434625067       -0.57228733711265
C            6.81620540625023       -0.13290944544590        0.10640840848650
O            8.08884097409619       -0.09972440262448        0.59366452488874
C            8.86439384619958        1.05155230472328        0.37055837288792
C            6.11424364942329       -1.34273497181110        0.32186825168474
O            6.80667617955262       -2.30216768356510        0.99881732981170
C            6.19278283631953       -3.54753846103981        1.20883806522197
C            4.82203890886390       -1.47520817637583       -0.15875251242193
C           -0.21625167321184       -1.47675230624206       -0.65817894493953
C           -3.72603730694777        3.10027726446452        0.88903100487977
C           -4.25754412513842        3.45252340189704        2.25654856929904
C           -3.11959001045515        4.31736687530495        0.18610678974295
H           -4.53586981426320        1.09746531885199       -0.83752946958891
H           -6.57338238331394        0.41748436861925       -1.66072773372650
H           -6.69160688065224       -0.79932417861261       -2.94899273491939
H           -5.23201195796658        0.19592632310572       -2.82730442509657
H           -4.66523610822608       -4.15015839720939        1.95756580461889
H           -4.85710259815808       -5.19889693860737        0.53150305909242
H           -3.25668003834614       -4.53448338034471        0.94735064588809
H           -2.98399473572408       -2.49769002345540        2.11798754971261
H           -2.23615246869916       -0.23008819327674        2.50941019554554
H           -3.12408279273311        1.96676359727184       -2.78282585069248
H           -1.58356602832048        2.81189535211480       -2.25570648007399
H           -2.22218951379683        0.01666803115724       -1.31494022640649
H           -1.57749630472550        0.47013642546995       -2.90784924145314
H           -0.92060758568080        1.25008616301871        1.81553257851227
H            0.41387792967630        1.69669202501243       -1.54121583533986
H            1.90448646474932       -0.58101176521702        0.64109147054367
H            2.03045770739885        0.98793424403252       -0.11620258747915
H            2.65143288333476       -0.04758976109220       -2.27214575911595
H            2.56050209433128       -1.66289611267382       -1.52917505054732
H            4.42378095155989        1.55641644866286       -1.58449228595416
H            6.70642061694894        1.82947971880091       -0.73779353386885
H            8.42551971126685        1.92830842863559        0.85504515252179
H            8.99393639024670        1.25250625844817       -0.69880369436542
H            9.83928306120758        0.85160881571153        0.81453462830434
H            6.92647822845361       -4.16318674075230        1.72812271865602
H            5.29957116809314       -3.45047187230292        1.83349083473261
H            5.92378439936268       -4.03105542499737        0.26284699563495
H            4.27422109319056       -2.39242163941103       -0.00545237501035
H           -0.33534129318994       -1.88354062616355       -1.66432372284582
H           -1.20044342392233       -1.37153679202195       -0.19529363010755
H            0.37778333252375       -2.15475556366466       -0.05427003086738
H           -4.63326867340767        2.79332452759219        0.34451617191901
H           -3.43874869387963        3.77238910196789        2.87308002227059
H           -4.72265980641174        2.59083526767653        2.71790947112638
H           -5.00805539394889        4.22545743088437        2.16797864154531
H           -2.26258475009204        4.63482423124478        0.77416120326382
H           -2.82222149254994        4.04455816259551       -0.82683181275089
H           -3.83206424245818        5.15261835215403        0.16449378371444
H           -0.63135504979060        3.12464657962538        3.12490394694484
