72
 energy: 63.827179031768 xtb: 6.6.1 (8d0f1dd)
N           -1.29251143616805        3.27055942487879        2.43042078014065
C           -1.64363061638203        2.11629379882282        1.97422952973039
C           -2.80314411869430        1.93094059259778        1.20351469360502
C           -3.24376872069234        0.60444382955179        0.92804355294419
C           -4.15663300051857        0.31532957104137       -0.11881205780493
C           -4.55820419517773       -0.96505594959066       -0.41469192601763
O           -5.36133633183632       -1.29193947163527       -1.47958766282399
C           -5.92718006485928       -0.25399255843771       -2.24121251184287
C           -4.10808277874398       -2.04302991400060        0.37886662024073
O           -4.54678983287728       -3.28060799790113       -0.00298150131697
C           -4.25952627799385       -4.37393265151807        0.82839008202147
C           -3.28950550917297       -1.76208569021504        1.46394518315820
C           -2.85785187186154       -0.47438872455211        1.72991919940569
C           -2.20608985636712        1.97605269251944       -2.40937742084121
C           -1.60511998391840        0.69905625409127       -1.96137872292476
C           -0.20542423232387        0.71911706942022       -1.55109644133533
N            0.35407174491582       -0.17370822999216       -0.70607973289749
C            1.74207630031316       -0.04383067693556       -0.32393141531272
C            2.74937088511591       -0.61153584036109       -1.34959395060758
C            4.16085136541892       -0.43808430005865       -0.85662846854038
C            4.84792204557677        0.74766261020195       -1.04828660463251
C            6.14351757255696        0.90881454661945       -0.56827205104794
C            6.77498909907964       -0.11711582480317        0.11270558696756
O            8.04625801425508       -0.07798167420189        0.60160835661927
C            8.81833998672113        1.07641744812974        0.37985886615229
C            6.07783743856075       -1.32972472003337        0.32745796782151
O            6.77315906945435       -2.28544475487161        1.00578979002318
C            6.16526116763329       -3.53368737153939        1.22001497173260
C            4.78705257465713       -1.46779826578115       -0.15459400345169
C           -0.25477219230768       -1.47412206500420       -0.65286022384735
C           -3.72188988630333        3.09707440835713        0.97207057502599
C           -4.20041193418176        3.59266153969872        2.31261448406364
C           -3.08173084926615        4.22559274926547        0.15015133258984
H           -4.51168165537717        1.12488018373683       -0.73492471733048
H           -6.51247398404551        0.44486471763741       -1.63355081536202
H           -6.58223728855116       -0.71829112147693       -2.97620843918276
H           -5.14146970309446        0.29111865526075       -2.76934282686127
H           -4.62479597262159       -4.23943214453254        1.85097146598821
H           -4.76720816805407       -5.22522351693000        0.37711544458162
H           -3.18452095452870       -4.56540470648492        0.86134400045264
H           -2.96648435752983       -2.55917550757141        2.11473597916785
H           -2.25408825436425       -0.30391666867494        2.60325065906377
H           -3.08856939995818        1.93450902219897       -3.02404511499305
H           -1.54178449551449        2.80926043272101       -2.50070059105862
H           -2.26853371116062        0.13321094638749       -1.31416950545565
H           -1.63865035780093        0.23478671573707       -2.93938925464028
H           -1.01479323835763        1.21476452379998        2.05932681157570
H            0.35414048908034        1.65447376955338       -1.64850040913719
H            1.85719688029993       -0.54994040761662        0.63509602047692
H            1.97865501164305        1.00798210426513       -0.16034009535214
H            2.62740648789385       -0.07167252512969       -2.29052279934621
H            2.52612782116605       -1.66834487862694       -1.51470388272686
H            4.37999885910046        1.56032427818589       -1.58390772451238
H            6.65848169818498        1.84287548896450       -0.73566065341666
H            8.37737266097797        1.95267301221835        0.86404335060334
H            8.94927152694397        1.27702325038129       -0.68906088037701
H            9.79140271416776        0.87599662995332        0.82631489831929
H            6.90325644073511       -4.14118825359383        1.74221591350717
H            5.27126079396506       -3.44023977913497        1.84454846989203
H            5.90128955621900       -4.02267808037291        0.27593102360244
H            4.24549916473452       -2.38900771050855       -0.00237510478528
H           -0.35933321289899       -1.91534534670248       -1.65121411120610
H           -1.24819589628199       -1.38144462917108       -0.21085929504785
H            0.34608831437274       -2.13081841749911       -0.03509391225424
H           -4.64162863603146        2.76885694327103        0.46837698182154
H           -3.36149121651897        3.95041715824310        2.88044488469912
H           -4.68354148781116        2.79361190443068        2.86953016238906
H           -4.92560247076521        4.37799116877733        2.15062314256781
H           -2.20354613302813        4.57568459401874        0.68336466144908
H           -2.80426818594929        3.84508513438819       -0.82921066010834
H           -3.76221573271566        5.08664466040707        0.03899173540860
H           -0.59003958599509        3.20654986220573        3.14679984934771
