72
 energy: 66.654861633958 xtb: 6.6.1 (8d0f1dd)
N           -1.33062114153435        3.22297163411658        2.44199943503038
C           -1.60121419443577        2.10485179484051        1.88105304972053
C           -2.76053122069813        1.94316159517355        1.09956587662966
C           -3.23552437375446        0.61559319906581        0.85315162979773
C           -4.16944632169628        0.31115246395758       -0.17148246184496
C           -4.58982532572437       -0.97067682476027       -0.42909249146957
O           -5.42055580123264       -1.31382528686010       -1.46392169893862
C           -5.98376536103305       -0.29380378090610       -2.24760193022879
C           -4.14021348713411       -2.03219149055399        0.38454759796248
O           -4.60113158723958       -3.27311564965027        0.04566009034577
C           -4.30526807336980       -4.34615061528766        0.89935221293205
C           -3.30499054041652       -1.73487885116483        1.45190862681862
C           -2.85908280546885       -0.44425285060242        1.68100872035334
C           -2.24305039434417        1.99160255255094       -2.23628339221560
C           -1.59174460919587        0.71268437945371       -1.88005068193347
C           -0.19844888329784        0.75704725379569       -1.47030745554675
N            0.39181387053968       -0.18702993818151       -0.72263451667250
C            1.77358742949522       -0.05577485585123       -0.31435699607494
C            2.77644190781590       -0.61063069458256       -1.34930342024434
C            4.18844783550487       -0.44179819863297       -0.86041805770376
C            4.87662011087977        0.74341838529814       -1.05043264415699
C            6.17308467443406        0.90073736735205       -0.57123087803794
C            6.80266368191525       -0.12758541711851        0.10856289973919
O            8.07497892190496       -0.09255310768369        0.59570815621562
C            8.84951483559157        1.05988610143407        0.37332464576823
C            6.10229264102404       -1.33848807413659        0.32384087763700
O            6.79602452374111       -2.29673879098080        1.00068410996859
C            6.18447566749257       -3.54319375510584        1.21354506668764
C            4.81052750085977       -1.47293201194599       -0.15717937154198
C           -0.22979924415776       -1.47892008864168       -0.65847400420712
C           -3.71932276325662        3.09739578002499        0.91683909019036
C           -4.23675965262419        3.49819079509334        2.27505083796076
C           -3.10497190641893        4.28860925239874        0.17053366979836
H           -4.52780807482582        1.10676024942506       -0.80322618969213
H           -6.55310645691047        0.42805674934997       -1.65293133408675
H           -6.65716562102287       -0.77260648808654       -2.95455887799141
H           -5.20128932228122        0.22515017020540       -2.80607597298818
H           -4.64962323752174       -4.17964955256888        1.92389561642639
H           -4.82588331703102       -5.20613288373617        0.48118751952634
H           -3.23146373361462       -4.54496109579585        0.91884058312532
H           -2.97910679421789       -2.51831345780856        2.11794487825312
H           -2.24279883787561       -0.25376887216679        2.54254643231610
H           -3.11470751208696        1.95789981600120       -2.86477777606122
H           -1.57360661685208        2.81142886977484       -2.33911910214234
H           -2.23304099339203        0.05532220418484       -1.30282892820916
H           -1.60237923955156        0.39025051868841       -2.91836591442939
H           -0.94837030189566        1.21343140783203        1.89468161604752
H            0.39742461645602        1.67623082333975       -1.57187827435194
H            1.88837376234348       -0.57203594820803        0.63862469170371
H            2.01342860729217        0.99363804253139       -0.13155184271607
H            2.64584926685803       -0.05572773443902       -2.27935862799145
H            2.54889618839856       -1.66476185567595       -1.52495497347567
H            4.40950542480480        1.55770849172861       -1.58430172131233
H            6.69077056101149        1.83325391724309       -0.73894968289723
H            8.41011589478184        1.93655914849830        0.85775199301085
H            8.97968063868984        1.26050568085164       -0.69578951707227
H            9.82345329544087        0.85894203896627        0.81834615562712
H            6.92000986194946       -4.15550083141092        1.73412130686377
H            5.29111327778344       -3.44697577201085        1.83821246363265
H            5.91724831063478       -4.02903011613952        0.26839924908028
H            4.26491798131370       -2.39161245423822       -0.00457534540658
H           -0.34277883276731       -1.89527762810766       -1.66175834385112
H           -1.21628588952234       -1.37676557890017       -0.20138720114102
H            0.37047450584272       -2.14519326896323       -0.04992142412543
H           -4.63371324942263        2.78398773460832        0.38709777322200
H           -3.41346810665483        3.83408007470008        2.87590265692472
H           -4.70863861356063        2.65699312555077        2.77196461313384
H           -4.97919896080729        4.27475890261286        2.15843472375074
H           -2.24122326491518        4.62079777935483        0.74113151197423
H           -2.81514667861002        3.97751016952139       -0.83171149526438
H           -3.80742995901522        5.13421735151791        0.12097863644075
H           -0.61988369796945        3.14550774816864        3.14929355662498
