72
 energy: 53.979284464831 xtb: 6.6.1 (8d0f1dd)
N           -1.32809053058486        3.26897050720148        2.69021856738213
C           -1.72760173506891        2.09947410031251        2.31255963723909
C           -2.89588491081401        1.89473909767171        1.54954691312893
C           -3.27237493599218        0.57477411408671        1.15053668472901
C           -4.07708191025562        0.34613196458044        0.00633525273823
C           -4.45060730766707       -0.92264640728058       -0.39184071704487
O           -5.21312723792062       -1.20240595819697       -1.49430249139661
C           -5.77210564105750       -0.13102241330154       -2.21199986815980
C           -4.02896337054514       -2.05094667996262        0.34726591599583
O           -4.42937366946873       -3.27058471346103       -0.13620713447187
C           -4.15046961207194       -4.42362144502935        0.61215139783776
C           -3.24711469576565       -1.84139478490331        1.47562362079029
C           -2.87531551634298       -0.56860306682886        1.86497331205206
C           -2.04690504567551        1.89186417426063       -2.92216044554619
C           -1.56316105267461        0.71635485313333       -2.19143371571296
C           -0.25132690478802        0.81505680744207       -1.55724505517417
N            0.32055646096028       -0.13953441043993       -0.81649414666630
C            1.67574638420351        0.01188084896930       -0.35060534139148
C            2.69087689856471       -0.59270290798443       -1.34205170648835
C            4.09599008921781       -0.42087485348111       -0.83917755954167
C            4.77398779534000        0.76718571321753       -1.03392655744189
C            6.06748927506118        0.93424579192676       -0.55929765390975
C            6.70146104358780       -0.09048010752097        0.12101313788916
O            7.96807413239622       -0.04735856027088        0.61374049479444
C            8.73335263760431        1.11138108758654        0.40088443866397
C            6.01365821093403       -1.30737448868109        0.33432756114974
O            6.71442456122694       -2.25731692493255        1.01042992799732
C            6.12083928946375       -3.51159376272890        1.22680520116562
C            4.72450835748343       -1.45310270200557       -0.14426092822567
C           -0.30641229719819       -1.42471296384330       -0.69661312761703
C           -3.75045579651549        3.07662014224158        1.17696747041034
C           -4.14834853923178        3.85424363797783        2.42638199696980
C           -3.03368888575768        4.01026147509879        0.19508969524583
H           -4.40751415839516        1.19573205171084       -0.56918963436606
H           -6.41018277989700        0.49106262420005       -1.57428825787408
H           -6.37001224549437       -0.56883784145193       -3.00780823788380
H           -4.99314689772599        0.49466274459221       -2.65768899104137
H           -4.57763936338105       -4.37049589807448        1.61939455559233
H           -4.61993614790111       -5.24315424252452        0.06803913706257
H           -3.07321093522391       -4.61477177329796        0.68630376516526
H           -2.94055518587457       -2.67780645336779        2.08625087618394
H           -2.30572818217001       -0.45655937939620        2.77459065243920
H           -2.95638213479630        1.83643652907651       -3.48327969953316
H           -1.44625749508885        2.77513330919816       -2.99217673402373
H           -2.30800382188263        0.42716240672976       -1.42337024272969
H           -1.55428707548027       -0.14083669934343       -2.88429072886876
H           -1.14876719530969        1.18011870454118        2.53439277196399
H            0.28604774688060        1.74889629383012       -1.63971083514589
H            1.77517139883692       -0.47299173296684        0.62332763738376
H            1.89262941356829        1.07196321844949       -0.22145019683672
H            2.57445789316671       -0.09366020368424       -2.30721621980383
H            2.46869169435635       -1.65201084265148       -1.47736375343242
H            4.29947641086353        1.57635279910281       -1.56860595575170
H            6.57080709075566        1.87179825740933       -0.73008691493512
H            8.28860640206210        1.98668893630750        0.88614341153421
H            8.86756608362339        1.31794875338234       -0.66641698896360
H            9.70319233793801        0.90398902230579        0.85103743363355
H            6.87328018758410       -4.10216108473625        1.74733303754233
H            5.22547361241105       -3.43488908370837        1.85332241991757
H            5.86384437766491       -4.00776593793729        0.28453024964087
H            4.19025263001025       -2.37860432308626        0.00735283388766
H           -0.42238837695353       -1.90160961881991       -1.67589563893703
H           -1.29846999641180       -1.31994131916913       -0.24876025225111
H            0.30206491186065       -2.06408657154775       -0.06256307316970
H           -4.67734077021443        2.72048380430554        0.71603928680943
H           -3.25754633248095        4.25217633355501        2.90004868201458
H           -4.66196788088882        3.19459848603150        3.12061949947710
H           -4.80762743028843        4.66900094975046        2.14643220360554
H           -2.13058607379000        4.39542406869057        0.66039007307577
H           -2.76581669497669        3.47672886811220       -0.71695556939879
H           -3.67938432455328        4.85327628123626       -0.05979805915492
H           -0.47632348532725        3.27618724235045        3.24588492862250
