72
 energy: 1.375248196192 xtb: 6.6.1 (8d0f1dd)
N           -1.52942309382393        2.93578399850538        2.28808095676216
C           -1.55509896473396        2.16402977903455        1.29252781186138
C           -2.71539067042835        2.03657693107115        0.34715689113241
C           -3.30309073319077        0.64626343596048        0.46391496543768
C           -4.27558885076107        0.26859725643249       -0.46686679983944
C           -4.78779337857197       -1.00836340530548       -0.50206463469903
O           -5.71492519101080       -1.44999379540050       -1.39875406017882
C           -6.28733448419859       -0.52607473909717       -2.28679154165792
C           -4.33426187394361       -1.96625740952992        0.42909044861716
O           -4.89430892720288       -3.20555656733132        0.30526746026286
C           -4.57188270390289       -4.17161331899610        1.26933510095565
C           -3.40299224795128       -1.58514324287061        1.37684920849364
C           -2.89520813431096       -0.28773417580709        1.39489678540724
C           -2.28479498781322        2.13075687693272       -1.25275154875745
C           -1.36196144049933        1.02673792859066       -1.73463020930519
C           -0.04939553265829        1.06286466606518       -1.05301675743427
N            0.57740347415189       -0.09542023226596       -0.59310147612773
C            1.95289968484150       -0.05570025257951       -0.20504976033994
C            2.90528209172737       -0.56874666309596       -1.31061771267065
C            4.32610827838302       -0.44406072947677       -0.86489535690154
C            5.02990101995432        0.73048806597066       -1.05337946032298
C            6.33288986892547        0.85829691059811       -0.59038918595858
C            6.94946256139895       -0.18751041893439        0.07469327164616
O            8.22712891421247       -0.17708249404440        0.55739357704895
C            9.01305907792239        0.96492263938772        0.33736483979574
C            6.23005919369040       -1.38386653685282        0.29183993863180
O            6.91391246844561       -2.35990647793619        0.95813001547536
C            6.28181939434067       -3.59541121942330        1.16755660095120
C            4.93217921044268       -1.49163245685719       -0.17379986099018
C           -0.09183607143302       -1.36054606950617       -0.62972579877490
C           -3.83254752542359        3.07582139550074        0.64912029237218
C           -4.43198391195525        2.95226357081822        2.04603010701559
C           -3.31345502003542        4.48910842900781        0.43558185008679
H           -4.61996255030005        0.99275218488919       -1.18404431941776
H           -6.77224473946003        0.30297118126478       -1.76053378340195
H           -7.03921359187896       -1.07732412310698       -2.84865627844173
H           -5.54318915729621       -0.13237087358207       -2.98563097369463
H           -4.82470384697713       -3.83741849574125        2.27932102707672
H           -5.16907868506381       -5.04654844105595        1.01796483896180
H           -3.50975466534893       -4.43430326085381        1.23592882083385
H           -3.04337584878999       -2.29528849359825        2.10373349800141
H           -2.17345835802319       -0.03110219915533        2.15619526691265
H           -3.14961319463730        2.14388526366363       -1.93956341714741
H           -1.69904878640258        3.04697476962537       -1.44075463304550
H           -1.89308942274291        0.08416340955787       -1.55757868619554
H           -1.22813488169728        1.18433069584641       -2.82387327455294
H           -0.72267611337412        1.52417160270788        0.96733624239783
H            0.60861542174181        1.92892733198020       -1.13640442720014
H            2.08268923616626       -0.65678265525291        0.69500277844449
H            2.22624963760644        0.97332918307707        0.04634146778176
H            2.73011034602575        0.03605950404414       -2.19999768215354
H            2.65565609622508       -1.60784745508669       -1.53244265497817
H            4.56664578170256        1.55777044949062       -1.56912212082458
H            6.86559388795949        1.78081137234491       -0.76308739369657
H            8.58667588918063        1.84496660879458        0.82879471663594
H            9.14168977469397        1.17238793645805       -0.73120719341313
H            9.98542363911846        0.74499331343278        0.77707767333765
H            7.01586411897030       -4.22092032674525        1.67408138270389
H            5.39759239001347       -3.49118247191435        1.80467883301506
H            5.99447556961137       -4.07207370416707        0.22341224855494
H            4.36680806644428       -2.39621514911736       -0.01335552018205
H           -0.24970471046501       -1.69965149549233       -1.65880860105100
H           -1.06547530299587       -1.28415555555530       -0.13747533860747
H            0.51150888716487       -2.09635860394830       -0.10180726758373
H           -4.66631463031018        2.89476242799273       -0.04517123156134
H           -3.66062522688244        3.14473170191959        2.77769811676472
H           -4.84904147450753        1.96409742749494        2.22237139582118
H           -5.23689426993261        3.67572885113323        2.15979437464574
H           -2.50467856240731        4.65658310516939        1.13883697384445
H           -2.95237646590012        4.62044714021854       -0.57879211931747
H           -4.10710486236023        5.20903408872372        0.62476726371189
H           -0.67132045593453        2.87217278309479        2.83379738508672
