72
 energy: 67.765886134276 xtb: 6.6.1 (8d0f1dd)
N           -1.40789778977509        3.16043846114258        2.44361692407102
C           -1.58488142012003        2.12172080513973        1.72261953404692
C           -2.74094309206577        1.96734899730897        0.91930459458740
C           -3.24827153980523        0.63028362396985        0.74328324867046
C           -4.19667847980227        0.30341824084594       -0.25364882620604
C           -4.64011056331206       -0.98103130081815       -0.45323926173917
O           -5.50485297781429       -1.34959669032011       -1.44679141847811
C           -6.06772385140135       -0.35526973738858       -2.26140330177700
C           -4.19213530954180       -2.01695547323295        0.39302191017280
O           -4.68496417716155       -3.26624261606213        0.10982610299918
C           -4.38056330853910       -4.30564214203765        0.99926275867960
C           -3.32837521200251       -1.69514135101386        1.42904475329477
C           -2.86547187618759       -0.39989893369057        1.60200376834874
C           -2.28231840361533        2.01372544905749       -1.96668533003385
C           -1.55094732780188        0.75116666370389       -1.80131768762567
C           -0.17119689525244        0.82878190218335       -1.35267581436086
N            0.45923414040757       -0.18910395353523       -0.74605929163394
C            1.82601933207666       -0.06585685716182       -0.29500428757478
C            2.81705234313731       -0.60607119959084       -1.34536571971213
C            4.23036115939058       -0.44639039536493       -0.86771028558757
C            4.92018176222294        0.73747514188627       -1.05450322424485
C            6.21701816810567        0.88937631074042       -0.57433987500845
C            6.84402303783558       -0.14376241866053        0.10142782677333
O            8.11665996860803       -0.11317392433332        0.59135496744387
C            8.89493458899025        1.03512742442276        0.36537234606173
C            6.13862380584607       -1.35003106062579        0.31716908097630
O            6.82777567646857       -2.31256817590683        0.99571547280622
C            6.21046143461494       -3.55697836280067        1.20097448241278
C            4.84577430094824       -1.47915471568375       -0.16292326894412
C           -0.18574477369736       -1.46672075062324       -0.65470910070736
C           -3.74477550775218        3.09997183204881        0.84321547460673
C           -4.29948674811773        3.35142458812829        2.23228531648243
C           -3.15293207526098        4.36685161942942        0.22877508790081
H           -4.54553136314165        1.08314127124963       -0.90894516928060
H           -6.61440357363498        0.39543555849766       -1.68004495386521
H           -6.76267770539948       -0.85429796140443       -2.93580418576408
H           -5.29451186299095        0.13281168815008       -2.86185643827771
H           -4.69849863065544       -4.08830105317056        2.02260112955394
H           -4.91970438610913       -5.17884089721092        0.63165621434791
H           -3.30734554419160       -4.51496310947278        1.00514242409225
H           -2.99661122901882       -2.45674500272237        2.11802721479986
H           -2.22548623581174       -0.18357248042071        2.44189684761012
H           -3.14565255238901        1.98542515900710       -2.61297829487783
H           -1.61073409425113        2.82996670085502       -2.08391354219973
H           -2.17996675963883       -0.03671224787718       -1.34203860981348
H           -1.51065791607153        0.62029969785419       -2.88841837280907
H           -0.86738913856556        1.29488840991174        1.64062851054613
H            0.46104175063588        1.73896888275790       -1.49587004767199
H            1.93824383734668       -0.59987753831342        0.64721571767584
H            2.06636711576044        0.97881065616623       -0.08377697196001
H            2.66762751332889       -0.03144622600154       -2.25952515757488
H            2.58302888901605       -1.65656417856693       -1.53616318436508
H            4.45239713324239        1.55468454386668       -1.58213037665233
H            6.73840845575337        1.82081503705955       -0.73840025390976
H            8.45829109885078        1.91260979119344        0.85039385368377
H            9.02362321332480        1.23632287749652       -0.70429554304399
H            9.87040716562353        0.83335609146005        0.80759423347051
H            6.94309185976952       -4.17622134014272        1.71747494597400
H            5.31856460680976       -3.45861291535638        1.82708681552112
H            5.93845999665921       -4.03786876462061        0.25436260694047
H            4.29286400726648       -2.39238852022044       -0.00820102396297
H           -0.31902150128960       -1.85561748503378       -1.66506177079867
H           -1.16677022652055       -1.35789179788447       -0.18339505222572
H            0.40667836030229       -2.16344107779434       -0.06533701674294
H           -4.63585360228656        2.81511177875127        0.26489108881405
H           -3.48075734066254        3.64405707722097        2.86598893951207
H           -4.75546900251445        2.45535133445226        2.64322731343442
H           -5.06150399174865        4.12057005523088        2.18685229457093
H           -2.30513341959605        4.64441589693528        0.84706275886289
H           -2.84418632501068        4.17105242746932       -0.79722793636693
H           -3.88395669545565        5.18032245819864        0.25656995223445
H           -0.63365481520184        3.05791729868098        3.08468610048099
