72
 energy: 53.525028427852 xtb: 6.6.1 (8d0f1dd)
N           -1.34665460117421        3.26823270007151        2.74170619887103
C           -1.73901382636172        2.10039011764145        2.35578990078767
C           -2.91090736679432        1.88964805637084        1.60126531606438
C           -3.26969685572132        0.57119333980628        1.18117967778634
C           -4.05796160533564        0.35226380329893        0.02251834204077
C           -4.43274567159170       -0.91256958416244       -0.38336806704865
O           -5.18324662672059       -1.18908247491579       -1.49233963276811
C           -5.76523849129508       -0.12304041296049       -2.19763904037524
C           -4.01856376915604       -2.04342544850315        0.35363639045201
O           -4.43718231050112       -3.25420696960358       -0.13065664303107
C           -4.17908494101183       -4.40490304419056        0.62758549060083
C           -3.24019536894132       -1.84786801158292        1.48580221639967
C           -2.87155825367775       -0.57826394597843        1.88712127004179
C           -2.00943470232535        1.86500229891366       -2.99815251055968
C           -1.55437689390845        0.71662240110248       -2.21585594831537
C           -0.26290748094707        0.84420734204492       -1.54869994141766
N            0.31720378047413       -0.12221094740392       -0.83090529642487
C            1.66768275565070        0.02821953135613       -0.35308379380510
C            2.68623995739676       -0.58373080126702       -1.33575148694404
C            4.09056539331745       -0.41376572775527       -0.83042825705382
C            4.77079788260194        0.77276093231415       -1.02679888933277
C            6.06785561548789        0.93420048499654       -0.55933558215641
C            6.70363351647460       -0.09271810194615        0.11508115127483
O            7.97223080626953       -0.05545624785942        0.60213377650832
C            8.74343482490253        1.10079787454273        0.39361488254418
C            6.01221993687215       -1.30778377588070        0.33108886714202
O            6.71655978617181       -2.25967497758908        1.00025303972439
C            6.12606784711160       -3.51517293271930        1.21896416720800
C            4.71958390989600       -1.44831150444565       -0.13925743893751
C           -0.30891632577160       -1.40923121189673       -0.70795470185096
C           -3.76700785181054        3.07097161756722        1.21580475128191
C           -4.17860065725235        3.87298554470931        2.45589346118665
C           -3.03844258873398        3.97789041148178        0.21853739974176
H           -4.39183027330375        1.20531058078313       -0.54483557608100
H           -6.40378061147305        0.48899205285864       -1.55233043738845
H           -6.37584061690803       -0.58670315988514       -2.97142784679254
H           -5.01023462368160        0.51526169130766       -2.66950208072569
H           -4.60371569630536       -4.33425293491195        1.63483987937976
H           -4.66320074404499       -5.21973881794500        0.09074418195063
H           -3.10494307014812       -4.61219393859537        0.70271856471348
H           -2.93299371889512       -2.69255723671490        2.08406520675873
H           -2.30943803118979       -0.47687716375455        2.80171890979296
H           -2.94046660641204        1.82654831949133       -3.52256262355387
H           -1.42518040261683        2.76158163580098       -3.05132111059058
H           -2.31462519625004        0.47572729769890       -1.43909605349530
H           -1.55675663402713       -0.19089697407556       -2.83855254399263
H           -1.13662634323400        1.20007912116278        2.55777532259635
H            0.26443876999954        1.78330070296795       -1.60610531945166
H            1.75805281907110       -0.46047158739893        0.62036689448080
H            1.88708817051527        1.08965046339507       -0.22314791302654
H            2.57562810796271       -0.08505965588216       -2.30092988571155
H            2.46376149812720       -1.64366979187985       -1.46986870243935
H            4.29914036828739        1.58405412902763       -1.56071369633060
H            6.57500211192495        1.86909408062458       -0.73637232042580
H            8.30225773518473        1.97632332976459        0.88131492690221
H            8.88034918560226        1.30893035909495       -0.67281239416417
H            9.71121159238211        0.88797597982365        0.84519021990318
H            6.88109145948198       -4.10360809272020        1.73810787723536
H            5.23289511788647       -3.44028004340424        1.84858092957566
H            5.86759972989010       -4.01104388086423        0.27712829054810
H            4.18605028398283       -2.37419165594485        0.01279478148334
H           -0.42473929563851       -1.89153477471831       -1.68466421084282
H           -1.30097086746384       -1.30612307440874       -0.25967460762272
H            0.29809824490317       -2.04732203482941       -0.07075453121616
H           -4.68983212631712        2.70717367156723        0.75189673292108
H           -3.29286689034697        4.27032079286070        2.94017292307250
H           -4.70930504003317        3.23459147815921        3.15999940255959
H           -4.83259993775989        4.69385396523939        2.16820249083570
H           -2.13630759975590        4.36480689331117        0.68290139207138
H           -2.76530137159825        3.42589900810353       -0.68089412677476
H           -3.67634527868812        4.81313577380565       -0.06430498630833
H           -0.47520484981310        3.26923399245885        3.26608929863389
