72
 energy: -6.190971786447 xtb: 6.6.1 (8d0f1dd)
N           -1.50145795387162        2.80886995178702        2.25317601008845
C           -1.55294222752497        2.15227061102566        1.18210092386475
C           -2.74015272100200        2.05676707257994        0.26880433014456
C           -3.31509074390012        0.65024509779809        0.35989345625436
C           -4.29725329140149        0.25304163167477       -0.55005001159744
C           -4.83424013759515       -1.01799152014812       -0.52399777784002
O           -5.79321723830573       -1.48053787685880       -1.37400013511657
C           -6.36918354933761       -0.58889915790146       -2.29291924697463
C           -4.38325496931329       -1.94712914233984        0.43921797121149
O           -4.96873462099612       -3.17703794702732        0.38306836495126
C           -4.64088508738632       -4.11736789557238        1.37242073935125
C           -3.41934459340968       -1.55164856488705        1.34635529531745
C           -2.89179260027728       -0.26463448869284        1.30587416629230
C           -2.22125481881526        2.25653163353700       -1.19841283430319
C           -1.28081765393379        1.14906879379143       -1.69012768011460
C           -0.00465797180596        1.12212822530907       -0.93016950878512
N            0.62363056563333       -0.05436586258915       -0.56218068805915
C            1.99556838733704       -0.04053295460892       -0.16789399153175
C            2.93079758358144       -0.54826068136242       -1.28740131650073
C            4.35458541095159       -0.43675929997569       -0.84729727541909
C            5.06643372224418        0.73071555976664       -1.04694311475537
C            6.37425118373723        0.84666033151424       -0.59890001211028
C            6.98617906894455       -0.20338816510468        0.06266663474374
O            8.26483066696531       -0.20280319214118        0.53745544693744
C            9.05539924903897        0.93734344098702        0.32464852211833
C            6.26150889156403       -1.39639004407346        0.28334812724723
O            6.94423526189525       -2.37734038480651        0.93950723085122
C            6.30777594529595       -3.60951492481893        1.15701881897782
C            4.95958036107046       -1.49369853933506       -0.16842473209130
C           -0.05770073172406       -1.31535820082632       -0.62183244199401
C           -3.86435087216115        3.07450808667276        0.59938700906707
C           -4.48203585045016        2.81927685386328        1.97059578348216
C           -3.37430130201703        4.51581904461719        0.52382255088984
H           -4.64692986068671        0.95754002190929       -1.28569338310324
H           -6.83042156578542        0.26943964819293       -1.79303536519134
H           -7.14073975800741       -1.15908787697435       -2.80745435751860
H           -5.63735164173139       -0.23476380043890       -3.02646913975115
H           -4.86779852279842       -3.74422886574809        2.37614221856380
H           -5.26120084970217       -4.98716956759628        1.16233093413216
H           -3.58527213233011       -4.40588225602605        1.32454266899547
H           -3.06283731865482       -2.23714048762229        2.09853463697650
H           -2.15279276519063        0.00990816571899        2.04390528770091
H           -3.06085802385696        2.32129869978020       -1.89831701373890
H           -1.66341430592382        3.19718984239207       -1.26471712358684
H           -1.81695156134439        0.19808244897671       -1.61270747519136
H           -1.05810574903839        1.34445178769501       -2.75146420427998
H           -0.69405619134676        1.62226483375703        0.71826452081309
H            0.64176930324783        1.98384114059599       -0.98930909522282
H            2.12441774434967       -0.66922503697235        0.71881711540600
H            2.28610663382032        0.97956462149860        0.09621046008485
H            2.75607522760114        0.06005816245576       -2.17587377741769
H            2.67540895866831       -1.58386884390989       -1.51768175553310
H            4.60788750962300        1.56118475198555       -1.56288547176080
H            6.91004412976902        1.76445842259989       -0.78167840279082
H            8.63482904223846        1.81900846979040        0.81960283207446
H            9.18597218806936        1.14782527350310       -0.74269760633179
H           10.02377966543671        0.70552468700609        0.76558818005463
H            7.04531996907002       -4.23306508032901        1.66025259079208
H            5.42763437116308       -3.50313801221802        1.80031303248095
H            6.01418182132291       -4.08769758189238        0.21585909755896
H            4.39301337374588       -2.39810430886251       -0.00816477493994
H           -0.22693692291710       -1.63981220424419       -1.65497218097742
H           -1.02734068585504       -1.25277946320483       -0.11786770094636
H            0.55027625440745       -2.06353892717614       -0.11774090454111
H           -4.65667711138020        2.94315306725685       -0.14858031117822
H           -3.73115709278266        2.96264829037663        2.73924332010836
H           -4.87021216175792        1.80716792381477        2.04071192172604
H           -5.30360518902624        3.51268180790369        2.13736951722069
H           -2.57697471031765        4.67087346092101        1.24418526221631
H           -3.01666980683924        4.76485882552564       -0.47009957711808
H           -4.19455915459231        5.18789831865877        0.76326635335570
H           -0.61390841978610        2.78776997967003        2.75367186009373
