72
 energy: -99.594529168083 xtb: 6.6.1 (8d0f1dd)
N           -1.64519656030865        2.93234369028537        2.28360277533101
C           -1.63088383645117        2.21247188997652        1.26191855835245
C           -2.78280141230740        2.08227230495780        0.30070642086896
C           -3.34690551005387        0.67114664845925        0.37511371825150
C           -4.30625081293701        0.25742696222622       -0.55291212013538
C           -4.86199708652800       -1.00638416543293       -0.49976883921916
O           -5.80438143873070       -1.48201218718531       -1.35447928487589
C           -6.36449563056900       -0.60979582513929       -2.30384023789588
C           -4.44321692107001       -1.91547715930307        0.49996559624175
O           -5.03417807779072       -3.13878234220987        0.46187851632884
C           -4.70056163013921       -4.08109163368169        1.44987575184390
C           -3.49350374827100       -1.50427789475097        1.41537360262517
C           -2.95714234127143       -0.22222669581015        1.35525014969419
C           -2.20166275983961        2.34865073019899       -1.11357791918644
C           -1.36826511963352        1.19549849270824       -1.71748665232354
C           -0.02179569895377        1.02284963810184       -1.12650525679768
N            0.51473395793892       -0.11229715742122       -0.69290939328558
C            1.89381185013495       -0.15781600443630       -0.25551234271481
C            2.86237776918835       -0.74160970407346       -1.33249927625321
C            4.28522832886212       -0.65473470332026       -0.87453706941305
C            5.01535127336703        0.51767761753331       -1.07153659712755
C            6.30048853943255        0.63068554512119       -0.63429991246932
C            7.01040870339156       -0.39582694864078        0.05979050425627
O            8.18832531770549       -0.17024147952829        0.41896853430982
C           10.39870389390026        1.79309146776466        0.44195895191962
C            6.21223934196331       -1.62165269758695        0.25456423589411
O            6.84431401223560       -2.63607914313786        0.91065554229675
C            6.15587547816378       -3.83451771431447        1.11409860689023
C            4.91014361791561       -1.71145431043812       -0.20034264855428
C           -0.19476424359438       -1.36489525018888       -0.77453979960698
C           -3.94038424360351        3.08325982192647        0.59083220500265
C           -4.60667716469610        2.79379721209716        1.93428985307070
C           -3.49404881172445        4.54292724441327        0.54357389763191
H           -4.62897771142420        0.94357774822291       -1.31858282241507
H           -6.82651097837984        0.26204967159990       -1.82872921597014
H           -7.13239739474038       -1.18809237241670       -2.81536296722144
H           -5.62155334611707       -0.27509792962498       -3.03601288729370
H           -4.94951785793006       -3.71937856636253        2.45253229231798
H           -5.30127104007734       -4.96144489562583        1.22770850231183
H           -3.63914297915494       -4.35092331302053        1.41279443161257
H           -3.16844996819034       -2.16719254707824        2.20134956982026
H           -2.24539667474668        0.07481788807637        2.11005201771982
H           -3.03256647923956        2.55145341995352       -1.79374313277929
H           -1.58323213893083        3.24547350363061       -1.07271571839002
H           -1.94372201711285        0.27288911091533       -1.66615378585199
H           -1.21126093084816        1.43625314612548       -2.77797307748654
H           -0.75614613352894        1.62463665557663        0.93200320812803
H            0.59928121912709        1.90216279858617       -1.05011165836664
H            1.96512677239148       -0.78091805909692        0.64019958715491
H            2.22430625999083        0.85351807604945        0.00114751558757
H            2.72306988693302       -0.16083635578178       -2.24738524578173
H            2.57456617781152       -1.77596630873939       -1.54332055003052
H            4.56374767979430        1.35078854543327       -1.59343977419110
H            6.84523871457035        1.54649852583278       -0.80589996140552
H            9.93406103961507        2.57213499513964        0.97810863389639
H           10.50845735890569        1.90619544917645       -0.59893687047996
H           10.99238472215943        1.08204367649591        0.96042295091623
H            6.86181952727148       -4.47559164680045        1.63687601974416
H            5.26006658417818       -3.70735004768620        1.73579294215260
H            5.86634034765647       -4.31042377968761        0.16968361870036
H            4.33588704546141       -2.62471667410502       -0.06455675665092
H           -0.36664125599831       -1.65643640289508       -1.81228542376641
H           -1.15879738500752       -1.28670146685325       -0.26591965365631
H            0.39182566917989       -2.14111837962952       -0.28616817510283
H           -4.69001248016410        2.93341038502375       -0.19546884845502
H           -3.90001930364395        2.95173264694803        2.74024839568159
H           -4.97159115624572        1.77048935299530        1.97741180504589
H           -5.44935841100959        3.46556941162342        2.07749443861422
H           -2.73641305214560        4.72576666316747        1.29744297658654
H           -3.10414511224316        4.81367750274484       -0.43368001479727
H           -4.34455631472595        5.18660334851240        0.75371439893703
H           -0.80058855249271        2.96556141085468        2.84420889908358
