25
 energy: 0.000000000000 xtb: 6.6.1 (8d0f1dd)
C            3.23720163006194        1.16630919979326        0.08434469647475
N            2.29877817382611        0.07527477071623        0.03981603040599
C            2.58028210190900       -1.21425402444508        0.03006176031096
N            1.43813958087363       -1.93419271955128        0.00098261760884
C            0.39035688448383       -1.05887472636071       -0.00790371836672
C            0.93510056364412        0.21347819449412        0.01709077491437
C            0.09450143893243        1.40504303904423       -0.00410947031874
O            0.49712751527797        2.54126714362870       -0.00342325688240
N           -1.25076640035757        1.06271879480407       -0.03085478223738
C           -2.21907211982101        2.15522099834493       -0.05001256985998
C           -1.81739487048744       -0.20012725993278       -0.04692818574614
O           -2.99983886758376       -0.37846417018721       -0.07008878229737
N           -0.92618586207120       -1.30210215599479       -0.03682761578324
C           -1.46982264913417       -2.64643102187190       -0.06029820460571
H            3.71247264356769        1.21471455160235        1.06488849150277
H            4.00791497605742        1.03430808813993       -0.67357694370751
H            2.69910007168542        2.09770118228144       -0.09130154882931
H            3.56654120610678       -1.63682992603973        0.04233140067262
H           -1.67107961066214        3.09322851271934       -0.02552706933167
H           -2.82428953597071        2.09428624779827       -0.95318082946668
H           -2.87644029173232        2.07745725625962        0.81450067533302
H           -1.17061996399332       -3.19584890659852        0.83242232437030
H           -1.14560257411436       -3.17511610292205       -0.95688275822323
H           -2.55549792440841       -2.55659984320617       -0.07459039797972
H            1.38130855184625       -2.94313852034425       -0.01389874181052
25
 energy: -2.631443895101 xtb: 6.6.1 (8d0f1dd)
C            3.23187567600919        1.17793712252388        0.09186279936520
N            2.29652334160572        0.09272963895149        0.04223905200483
C            2.59926600306083       -1.23300308790206        0.03183451136058
N            1.45530183470657       -1.98108792678615       -0.00884827070557
C            0.40270057386904       -1.08454035803663       -0.00886133559142
C            0.92066375258501        0.20946974043049        0.01757788310866
C            0.09538758321657        1.39482099647087       -0.00501819714954
O            0.49430005377490        2.56077504633967       -0.00387454301418
N           -1.26741341256234        1.06038467214267       -0.03368309162005
C           -2.22759459785761        2.16211024680175       -0.05528927669362
C           -1.82526610791812       -0.19292459130820       -0.04833766324346
O           -3.02285552400292       -0.37097391658916       -0.07211868509984
N           -0.93578704709054       -1.30167876602705       -0.03639849878548
C           -1.48530747765539       -2.63388732474240       -0.05206388214434
H            3.72028136420354        1.21405611518962        1.06946256523295
H            3.99473728638231        1.04663384005641       -0.67733334072860
H            2.69308536836513        2.10961861223167       -0.07192077972829
H            3.57902429113920       -1.64398281951714        0.04681073572477
H           -1.67071320515526        3.09693857978185       -0.03271299060986
H           -2.83598041333447        2.11155391484490       -0.95831766657998
H           -2.88851386605746        2.09853251315555        0.80902331956944
H           -1.17215723973520       -3.17688299538959        0.84085997465766
H           -1.15904257937301       -3.16289548430567       -0.94843257087150
H           -2.57029223294283       -2.53643785426670       -0.05913254670181
H            1.48999124270336       -3.02823731187805       -0.05029360560925
25
 energy: 4.703879587957 xtb: 6.6.1 (8d0f1dd)
C            3.22289437234260        1.18498762106226        0.10247924241892
N            2.28823816638544        0.10566134558873        0.04503499095437
C            2.61251834114305       -1.24563396514096        0.03334760912986
N            1.47500121529115       -2.03200684070189       -0.02218203113157
C            0.41431827299881       -1.12137432879429       -0.01498023035370
C            0.90004288717817        0.19412036526589        0.01808678509507
C            0.09572161118108        1.37108576206881       -0.00494646695265
O            0.48598072315151        2.55413862416985       -0.00298873533831
N           -1.29055976785350        1.06291559130213       -0.03847824160631
C           -2.23758015345574        2.17700510232730       -0.06351991876277
C           -1.83056303806999       -0.18019284180222       -0.05168532211548
O           -3.03508111663399       -0.36252389298643       -0.07545536600974
N           -0.94766601463481       -1.29583386574199       -0.03858353853882
C           -1.50867097120180       -2.61558313367593       -0.03902759629547
H            3.73175900540224        1.20648352835166        1.07292336852509
H            3.97436807243720        1.06711694246984       -0.68320584478153
H            2.68414823915404        2.12088334145713       -0.03793345165353
H            3.59070668325997       -1.63984864820471        0.05405027695281
H           -1.66881572913431        3.10647893619616       -0.04377290332398
H           -2.84981341875054        2.13647572834900       -0.96580542598640
H           -2.90273048474508        2.12946048423670        0.80008246158304
H           -1.17865215339274       -3.15235453030827        0.85276061180254
H           -1.18775606005961       -3.15053210020938       -0.93438684262838
H           -2.59279173271202       -2.51127341368329       -0.03340757842895
H            1.66719771865506       -3.12062720942406       -0.10137195640687
25
 energy: 10.327294993751 xtb: 6.6.1 (8d0f1dd)
C            3.21628301203501        1.18607410734746        0.11055265054976
N            2.28532906214261        0.10410747074355        0.04439857512089
C            2.61605240120357       -1.24868982623766        0.02933258234749
N            1.48787270945943       -2.05270137007606       -0.03430202790449
C            0.42063556027940       -1.14176042157839       -0.02787326254495
C            0.89421162626703        0.18017550449001        0.01444679548907
C            0.09589006000360        1.35846355767365       -0.00532262608770
O            0.48362699387340        2.54042380929941        0.00048032858270
N           -1.30057755790328        1.06842679240020       -0.04296782468789
C           -2.24192595095243        2.18700646170317       -0.06923583143051
C           -1.83162106202945       -0.17532908470898       -0.05601969842780
O           -3.03506267951752       -0.36450063421416       -0.07778651810578
N           -0.94925374659443       -1.29225063522366       -0.04477751878032
C           -1.52323223285926       -2.60695255260608       -0.02922713668908
H            3.73766933750693        1.19450380772826        1.07483844540401
H            3.95827461235403        1.08760243094149       -0.68733895634019
H            2.67447192657552        2.12526369952289       -0.00629451000881
H            3.59931633470080       -1.63308857213997        0.05930329613333
H           -1.66869002176494        3.11359614029996       -0.05130263173399
H           -2.85622024121821        2.15005551664987       -0.97058464984081
H           -2.90864559719993        2.14674129195680        0.79385583266684
H           -1.18448950942647       -3.13866896047977        0.86221130937371
H           -1.21592691418766       -3.14955675886473       -0.92460961603901
H           -2.60691711866131       -2.49600502031555       -0.01084655519200
H            1.76514366384972       -3.15390815213968       -0.12389655570718
25
 energy: 11.555361728162 xtb: 6.6.1 (8d0f1dd)
C            3.21354185501207        1.18501232257457        0.11439940737158
N            2.28572979865836        0.09940426499195        0.04311948808104
C            2.61454618733674       -1.24811415418703        0.02565485074635
N            1.49170635301530       -2.05584624046150       -0.04040242339578
C            0.42219600350627       -1.14735967678233       -0.03735926421662
C            0.89528882022384        0.17389371410003        0.01030066964512
C            0.09635505027185        1.35553455240833       -0.00630915034685
O            0.48466532632242        2.53306395985623        0.00385251784920
N           -1.30182314508033        1.07191037852053       -0.04608028104324
C           -2.24235479564084        2.19009988908763       -0.07159966114518
C           -1.83165427529884       -0.17445918866309       -0.05931049421824
O           -3.03285425459575       -0.36727961643237       -0.07938980007439
N           -0.94765572739494       -1.29045141395669       -0.05022964862415
C           -1.52791538347373       -2.60477906926776       -0.02450761830011
H            3.74056406404434        1.18519259152220        1.07478551727068
H            3.94962388958783        1.10002659316316       -0.68987513381180
H            2.66805737137339        2.12429443158470        0.01159990649049
H            3.60105566905424       -1.62871661124093        0.06355355142735
H           -1.66925749105509        3.11631083444197       -0.05434829920193
H           -2.85751720685700        2.15299773922776       -0.97232759561032
H           -2.90850695258270        2.15074799756326        0.79187002525107
H           -1.18520173836301       -3.13343600057567        0.86671179549665
H           -1.23065566962234       -3.15217450341918       -0.91998000790616
H           -2.61110490158525       -2.49063007836974        0.00132284517358
H            1.79538582107929       -3.15621411351403       -0.12841730076108
25
 energy: 11.296668272484 xtb: 6.6.1 (8d0f1dd)
C            3.21257737647503        1.18400830958784        0.11583674080706
N            2.28658265177165        0.09608273300666        0.04303958174340
C            2.61219273083422       -1.24709827606094        0.02391222052741
N            1.49147278746725       -2.05468587133523       -0.04259289297711
C            0.42164347328437       -1.14789928350011       -0.04165414978315
C            0.89686500791445        0.17180136254190        0.00789092308321
C            0.09676093685937        1.35531062264009       -0.00695790800866
O            0.48614943607451        2.53038971297657        0.00643318302852
N           -1.30064145430943        1.07284052988987       -0.04811780411234
C           -2.24142288257537        2.19010875167620       -0.07261930984295
C           -1.83188648544746       -0.17455227594709       -0.06112661547199
O           -3.03177151584289       -0.36803019068429       -0.08051358986110
N           -0.94671723440862       -1.28977450837988       -0.05338960699754
C           -1.52852242987560       -2.60472562486823       -0.02255671022082
H            3.74320841905031        1.17950066769534        1.07339753568873
H            3.94470871340863        1.10612605773806       -0.69196356483988
H            2.66441744658858        2.12211337229456        0.02025983261975
H            3.59981877400714       -1.62653819745332        0.06741490674198
H           -1.66934425757615        3.11680156305902       -0.05568280882806
H           -2.85726196513621        2.15243332879177       -0.97286252826353
H           -2.90676448653063        2.15038640425098        0.79147780042913
H           -1.18320918599271       -3.13146247525851        0.86837839858139
H           -1.23597891618721       -3.15398172471258       -0.91796532977773
H           -2.61127792263965       -2.48969415747991        0.00678442523754
H            1.80061565072257       -3.15043222829674       -0.12978883335601
25
 energy: 10.927303879788 xtb: 6.6.1 (8d0f1dd)
C            3.21243310496948        1.18376581221833        0.11591991496715
N            2.28697098815527        0.09515370034789        0.04367651071642
C            2.61112420939595       -1.24686791519234        0.02339545614309
N            1.49048356384369       -2.05415376799038       -0.04265794132774
C            0.42099333292971       -1.14749794231268       -0.04238568337988
C            0.89729713672327        0.17176076482215        0.00720405461412
C            0.09689946736153        1.35539924284792       -0.00699990475321
O            0.48682377768949        2.53034369589125        0.00778789460629
N           -1.29980639707578        1.07249021104252       -0.04908716790641
C           -2.24071093640801        2.18955231213979       -0.07296332713551
C           -1.83213746063497       -0.17463403345145       -0.06175546160274
O           -3.03183153249355       -0.36765250528132       -0.08092030012710
N           -0.94673897473126       -1.28975479177351       -0.05452114768628
C           -1.52812041400815       -2.60504236940311       -0.02221940057266
H            3.74523632743129        1.17741869414966        1.07196034821123
H            3.94256841253317        1.10793002155969       -0.69358521901352
H            2.66312538432635        2.12109291430992        0.02306322775214
H            3.59867654716584       -1.62633047875442        0.07015402887549
H           -1.66905618126880        3.11657293005620       -0.05615176672530
H           -2.85699383630846        2.15174608091251       -0.97291833728150
H           -2.90565294940242        2.14965515689055        0.79151790084875
H           -1.18148161159342       -3.13103703255003        0.86850726116648
H           -1.23648408193703       -3.15458266914355       -0.91757141015020
H           -2.61072459944706       -2.49015102416151        0.00814458751657
H            1.79932139071998       -3.14614840500202       -0.13056022160841
25
 energy: 10.609056289483 xtb: 6.6.1 (8d0f1dd)
C            3.21241867840484        1.18375901230925        0.11568300844044
N            2.28717023323438        0.09485477427242        0.04465397679834
C            2.61058017239209       -1.24702403546136        0.02264559781205
N            1.48954465728650       -2.05435173368085       -0.04229494436258
C            0.42054509927761       -1.14719318375502       -0.04246743330107
C            0.89732673766646        0.17205959410389        0.00683666686421
C            0.09692107311639        1.35533062959687       -0.00676761876871
O            0.48713060736272        2.53067797558062        0.00890983056531
N           -1.29931017950852        1.07196526441794       -0.04992782242653
C           -2.24020390287727        2.18912396763889       -0.07321556674053
C           -1.83233857787839       -0.17463891786805       -0.06213846465023
O           -3.03212369767621       -0.36718985944235       -0.08104122488077
N           -0.94696821847305       -1.28988371487835       -0.05540527615840
C           -1.52774532311960       -2.60531041434030       -0.02221463035212
H            3.74743665371075        1.17607720295524        1.07030828114556
H            3.94073807476908        1.10908845944819       -0.69546552333257
H            2.66231429088572        2.12055937230078        0.02508802287297
H            3.59778237377858       -1.62676256517473        0.07354288594478
H           -1.66863686572767        3.11628305089688       -0.05651162037758
H           -2.85690816292031        2.15135772469108       -0.97288957324772
H           -2.90481662293940        2.14919658509397        0.79159228647946
H           -1.18008025257049       -3.13085900938590        0.86832513201740
H           -1.23638342697328       -3.15498454679639       -0.91754991174897
H           -2.61029475534808       -2.49068508107876        0.00879650761777
H            1.79811600206327       -3.14242194927192       -0.13145869006325
25
 energy: 10.473628679899 xtb: 6.6.1 (8d0f1dd)
C            3.21249146025270        1.18388005755276        0.11529046971432
N            2.28709776547909        0.09508333369458        0.04562096169070
C            2.61075614141384       -1.24740072640279        0.02112136764718
N            1.48917156106092       -2.05516013902149       -0.04189957339805
C            0.42056103689617       -1.14717515918222       -0.04218487318228
C            0.89708939805372        0.17232677920600        0.00676555373078
C            0.09681539026784        1.35513804699993       -0.00638884751827
O            0.48694151417074        2.53092129984021        0.00937330273522
N           -1.29938039238098        1.07168805620299       -0.05037041931964
C           -2.24016342469039        2.18911231805148       -0.07327838450049
C           -1.83234999783633       -0.17461869027276       -0.06215369830933
O           -3.03233208928450       -0.36711644538456       -0.08072164734653
N           -0.94712988579882       -1.29008455003906       -0.05590297652040
C           -1.52767830630294       -2.60537843081232       -0.02244480643942
H            3.74891795738257        1.17582058162975        1.06909410345283
H            3.93974435407108        1.10940158159074       -0.69687507525082
H            2.66224881901234        2.12064542371587        0.02584439790807
H            3.59749009336236       -1.62750254827935        0.07716550461536
H           -1.66831679053365        3.11612042841099       -0.05664485657191
H           -2.85707620875926        2.15147510860311       -0.97279002224694
H           -2.90458096551853        2.14925615855005        0.79168881414431
H           -1.17978116684403       -3.13091570585429        0.86803944234457
H           -1.23625033921876       -3.15514422272523       -0.91780409241709
H           -2.61026535660133       -2.49085829278928        0.00870919107816
H            1.79819410028229       -3.14048566111302       -0.13221993989308
