25
 energy: 0.000000000000 xtb: 6.6.1 (8d0f1dd)
C            3.23720163006194        1.16630919979326        0.08434469647475
N            2.29877817382611        0.07527477071623        0.03981603040599
C            2.58028210190900       -1.21425402444508        0.03006176031096
N            1.43813958087363       -1.93419271955128        0.00098261760884
C            0.39035688448383       -1.05887472636071       -0.00790371836672
C            0.93510056364412        0.21347819449412        0.01709077491437
C            0.09450143893243        1.40504303904423       -0.00410947031874
O            0.49712751527797        2.54126714362870       -0.00342325688240
N           -1.25076640035757        1.06271879480407       -0.03085478223738
C           -2.21907211982101        2.15522099834493       -0.05001256985998
C           -1.81739487048744       -0.20012725993278       -0.04692818574614
O           -2.99983886758376       -0.37846417018721       -0.07008878229737
N           -0.92618586207120       -1.30210215599479       -0.03682761578324
C           -1.46982264913417       -2.64643102187190       -0.06029820460571
H            3.71247264356769        1.21471455160235        1.06488849150277
H            4.00791497605742        1.03430808813993       -0.67357694370751
H            2.69910007168542        2.09770118228144       -0.09130154882931
H            3.56654120610678       -1.63682992603973        0.04233140067262
H           -1.67107961066214        3.09322851271934       -0.02552706933167
H           -2.82428953597071        2.09428624779827       -0.95318082946668
H           -2.87644029173232        2.07745725625962        0.81450067533302
H           -1.17061996399332       -3.19584890659852        0.83242232437030
H           -1.14560257411436       -3.17511610292205       -0.95688275822323
H           -2.55549792440841       -2.55659984320617       -0.07459039797972
H            1.38130855184625       -2.94313852034425       -0.01389874181052
25
 energy: -0.460225053236 xtb: 6.6.1 (8d0f1dd)
C            3.22884432468617        1.17741222466043        0.09224468653770
N            2.29176249431568        0.09257306587040        0.04309897623665
C            2.59610459452233       -1.23259263934564        0.03298420505814
N            1.46193551545757       -1.99464080443655       -0.00944647775715
C            0.40337416955142       -1.09193148249035       -0.00837697890488
C            0.91691668158383        0.20720723903638        0.01807656152897
C            0.09300102237023        1.39647279175539       -0.00502967584033
O            0.49225515205709        2.56243848283466       -0.00371042409820
N           -1.26959971764574        1.06464316329497       -0.03420659864674
C           -2.23001811620494        2.16719817113578       -0.05615591753075
C           -1.82598340504238       -0.18929847845259       -0.04857706834492
O           -3.02372256976329       -0.36599683531896       -0.07258297992512
N           -0.93699950395216       -1.30067358684793       -0.03614631612408
C           -1.48800653011069       -2.63091597013699       -0.05072981176987
H            3.71935987872910        1.21119522236456        1.06890203769438
H            3.99113420289066        1.04568001006713       -0.67761813215070
H            2.69405602792341        2.11174749199509       -0.06957365754787
H            3.57546022725257       -1.63942879381724        0.04823390552552
H           -1.67511025728568        3.10341654842519       -0.03388472820232
H           -2.83887655240928        2.11615305254897       -0.95889254398684
H           -2.89129402092803        2.10360803732402        0.80793909987239
H           -1.17194649631610       -3.17207330736716        0.84205448133583
H           -1.16091283629558       -3.15893912980673       -0.94704930591653
H           -2.57291261001227       -2.53397434637552       -0.05662769706917
H            1.53339299256228       -3.06025152474528       -0.05789174382682
25
 energy: 15.673209677844 xtb: 6.6.1 (8d0f1dd)
C            3.21748290994043        1.18293523682339        0.10224383308317
N            2.27720893934082        0.10657538061770        0.04619571238592
C            2.60263036681959       -1.24523411012349        0.03657825638807
N            1.48578043156918       -2.06522252688248       -0.02108188549960
C            0.41436756114748       -1.13673132517771       -0.01448768497351
C            0.89012593826271        0.18964614556136        0.01845474664577
C            0.09022484340190        1.37540104228043       -0.00492512243932
O            0.48176635955361        2.55911725405478       -0.00252323204350
N           -1.29699422456487        1.07471647488766       -0.03939583480118
C           -2.24470491273216        2.18923367085512       -0.06451824654485
C           -1.83365066440852       -0.16886383057826       -0.05210693406703
O           -3.03881136057833       -0.34947052195294       -0.07631258185670
N           -0.95255730479273       -1.28965054608900       -0.03827669341082
C           -1.51384845841649       -2.60706834112843       -0.03721571121103
H            3.72922978516842        1.20007781641781        1.07141534441503
H            3.96793002696910        1.06212685698512       -0.68433488558149
H            2.68823357781573        2.12480884550087       -0.03588518340713
H            3.58045437546301       -1.63121297845587        0.05811119993935
H           -1.68061366340066        3.12182912729086       -0.04514600225050
H           -2.85743878489776        2.14612357364580       -0.96641118708049
H           -2.90981097987501        2.13948190022400        0.79904593885991
H           -1.17620461326904       -3.14102322649924        0.85338532913360
H           -1.18853782769453       -3.13972884025779       -0.93205163360237
H           -2.59779685490698       -2.50831276119333       -0.03008957455884
H            1.77774920202125       -3.20052571463435       -0.11363407137519
25
 energy: 32.122471997994 xtb: 6.6.1 (8d0f1dd)
C            3.20847259098853        1.18298632738648        0.11096142088635
N            2.27080016747397        0.10487505513256        0.04580018642911
C            2.60339449939258       -1.25083017454708        0.03440693062485
N            1.50481415253044       -2.10353457780930       -0.03382408937348
C            0.42199255035720       -1.16396430432311       -0.03046909034929
C            0.87982915879367        0.17262200244914        0.01361521601063
C            0.08783869701257        1.36227462890599       -0.00527791200594
O            0.47710790665133        2.54539516483698        0.00142322625996
N           -1.31268288975994        1.08698628239589       -0.04453715897201
C           -2.25507633554902        2.20644906494301       -0.07093367858191
C           -1.83766345668254       -0.15722100443810       -0.05677174308331
O           -3.04196488092190       -0.34632387901555       -0.07874454733140
N           -0.95688802087321       -1.27998319403829       -0.04532525393627
C           -1.53235351431583       -2.59145697007125       -0.02588198734968
H            3.73455854318235        1.18492179581521        1.07295785227405
H            3.94728606100435        1.08184185030035       -0.68987120428539
H            2.67933872241785        2.13081162648829       -0.00091957412382
H            3.58828492995083       -1.62154666816271        0.06770335883993
H           -1.68868598757337        3.13752651741910       -0.05373613732596
H           -2.87109752700037        2.16712553731481       -0.97132434928728
H           -2.92258710421669        2.16458754212516        0.79180481209541
H           -1.18068254332889       -3.11809870598104        0.86377009894843
H           -1.21879636800874       -3.13084489531065       -0.92072067773289
H           -2.61600110086127       -2.48926666419045       -0.00394000211166
H            1.94297641727225       -3.28630375545339       -0.14313180037114
25
 energy: 41.306484663135 xtb: 6.6.1 (8d0f1dd)
C            3.20469223839366        1.18046416142433        0.11326467435648
N            2.26760048708647        0.10028175784511        0.04668486205950
C            2.59552528952638       -1.25187328879967        0.03864828045807
N            1.50977079571033       -2.11705209495637       -0.02913926904331
C            0.42155761900233       -1.17059152849534       -0.04375596358005
C            0.87671421983720        0.16617525364143        0.01035736157820
C            0.08538425026594        1.36078969979239       -0.00388055167581
O            0.47526162862847        2.53889064665821        0.00319808411589
N           -1.31950874173552        1.09759039091857       -0.04713209765554
C           -2.26049559424865        2.21605967704288       -0.07327479985138
C           -1.84213341492105       -0.14973664108356       -0.06014309178842
O           -3.04375694330830       -0.34486436142271       -0.07962664778723
N           -0.95926812549375       -1.27043481961226       -0.05362750514151
C           -1.53976347532719       -2.58296557023838       -0.02114932272436
H            3.73767559674953        1.17450654495441        1.07009228240765
H            3.93583814816068        1.09181606114101       -0.69499426487681
H            2.67479102495721        2.13007221340729        0.01577141796576
H            3.58562256851998       -1.61424174338747        0.07635725862012
H           -1.69478744934127        3.14701942327940       -0.05688947918612
H           -2.87750674699033        2.17551887580432       -0.97303724356082
H           -2.92739794653697        2.17444305471024        0.78997305440470
H           -1.18048141836901       -3.10467421503887        0.86777844935598
H           -1.23404972153497       -3.12709032555468       -0.91543166501217
H           -2.62290240898246       -2.48199357704001        0.00898176837411
H            2.04383278788744       -3.34908099281818       -0.16199169566564
25
 energy: 43.274347024583 xtb: 6.6.1 (8d0f1dd)
C            3.19995845952620        1.17496737168427        0.11242856528593
N            2.25215330981882        0.10019699873264        0.05069034580213
C            2.56319614169412       -1.24960665614968        0.05431929239669
N            1.50197881684808       -2.13748917313289        0.00396977808190
C            0.41155106774146       -1.17160586803999       -0.05073071369023
C            0.86290493887361        0.16743248256344        0.01022368598372
C            0.08021978985674        1.36645405939559       -0.00091555028406
O            0.46682740209771        2.54025188457449        0.00028022963351
N           -1.33078644460868        1.11622325953350       -0.04864803247739
C           -2.26776111143356        2.23173156241780       -0.07539818730619
C           -1.85056081177771       -0.13404388694618       -0.06182975270570
O           -3.05021604213867       -0.33405873404210       -0.07942230063655
N           -0.97097147658115       -1.25000468477285       -0.06044546974191
C           -1.54850044912111       -2.56806575525779       -0.01733657522284
H            3.73893382758556        1.16351582233808        1.06417305558583
H            3.92488214215802        1.09081300760088       -0.70025115594833
H            2.67796492868672        2.13041610440237        0.02389365666616
H            3.55985179256429       -1.60442684764897        0.08138062341656
H           -1.70047885464320        3.16108109857750       -0.06000901867412
H           -2.88421076169491        2.18689676237472       -0.97515177673997
H           -2.93286548026503        2.18796981977122        0.78892473049429
H           -1.17858403454335       -3.08658157602970        0.86863147053697
H           -1.24166317472129       -3.11554501779264       -0.90887753800846
H           -2.63112002473419       -2.47724294955706        0.01696358292817
H            2.25951071674766       -3.50025048242458       -0.20982904922883
25
 energy: 37.418570906568 xtb: 6.6.1 (8d0f1dd)
C            3.19638981226905        1.16699826406483        0.11272144687346
N            2.23359375755492        0.09778528668783        0.05462240435436
C            2.51247001177156       -1.24644532186571        0.06262129301664
N            1.47807113057889       -2.13920903388326        0.02673198776056
C            0.39422013681244       -1.15567801572908       -0.04149944335849
C            0.84991277163377        0.17928109929417        0.00866392318935
C            0.07327218501425        1.38216946503122       -0.00563771462689
O            0.45550768447909        2.54681213579010       -0.00072990314205
N           -1.33511968775237        1.13464357793607       -0.05075015932951
C           -2.27195335911297        2.24472819937931       -0.07722537836191
C           -1.85709311516242       -0.12211519696225       -0.06166884339346
O           -3.05537035632254       -0.32077364833370       -0.08005239117437
N           -0.98298027708099       -1.22879992615023       -0.05640600680498
C           -1.55351596237711       -2.55506633597417       -0.01357849115810
H            3.73822520815092        1.15396117925177        1.06093047048200
H            3.91731938535690        1.08342355580715       -0.70195990256661
H            2.68434240008104        2.12926562343366        0.02702793111014
H            3.51688030223399       -1.60196393776710        0.08538885681767
H           -1.70573005801817        3.17384846105308       -0.06314840220931
H           -2.88771884457091        2.19444766635248       -0.97684726011501
H           -2.93579763794503        2.19755290162825        0.78750264619502
H           -1.17600880014318       -3.07287008234873        0.86849833674501
H           -1.24122689940183       -3.10284941127264       -0.90265424384659
H           -2.63617675235624       -2.47498487722083        0.02090926860022
H            2.50070163224309       -3.67513302603013       -0.25642652890988
25
 energy: 25.475586447058 xtb: 6.6.1 (8d0f1dd)
C            3.19955834068149        1.15871318934209        0.11156445183721
N            2.22436969312657        0.08429783226560        0.05510491759142
C            2.43454571148042       -1.24011515845594        0.05751333969495
N            1.39860835846596       -2.05149338487740        0.02868548233339
C            0.35727875450362       -1.07938404096415       -0.00650408789669
C            0.85470522434219        0.22127750191673        0.00456316316030
C            0.06269244910705        1.42206869576592       -0.01753289422594
O            0.44808792403751        2.56543647542102        0.00138532661321
N           -1.31468147807750        1.14019987432678       -0.05078231909937
C           -2.26510189635312        2.24136216159980       -0.07688766946482
C           -1.85879446293676       -0.13103726191999       -0.05776935835933
O           -3.05631614323770       -0.30648219341643       -0.08092911661174
N           -0.99147538372798       -1.21518620087851       -0.03557722768176
C           -1.54593176329099       -2.55556441167221       -0.01460464390147
H            3.73270142748360        1.15291513486542        1.06239749753600
H            3.92334187183330        1.06753695257582       -0.69739457046334
H            2.69111620099468        2.12322313195399        0.01416716674355
H            3.45230906646866       -1.61922054380652        0.08678317284612
H           -1.70742059587242        3.17499567955797       -0.06319016604847
H           -2.88101335220901        2.18833406725674       -0.97613124410084
H           -2.93069528062621        2.19109813926233        0.78621732399638
H           -1.17283827184819       -3.07546086603805        0.86532146837031
H           -1.22439691932831       -3.09624694573383       -0.90372967364294
H           -2.63002603971529       -2.47978439104068        0.01285226523239
H            2.71159123263458       -3.89245483513446       -0.27848870831123
25
 energy: 21.730787318442 xtb: 6.6.1 (8d0f1dd)
C            3.20360289399861        1.16214434322063        0.10683331684452
N            2.22879712290224        0.08335502055762        0.05097803588329
C            2.39872592272038       -1.23700648066836        0.05585451238550
N            1.31930837187533       -1.97475699372428        0.03232940454861
C            0.33071441647796       -1.01624303845984        0.00281764332578
C            0.86351597346278        0.25913007721241        0.00592014662360
C            0.04954804403776        1.45496643712974       -0.01246045391844
O            0.44363685532188        2.59373755074517        0.00296877808994
N           -1.30379937969729        1.14421138488386       -0.04841316694647
C           -2.26488402312276        2.24117876349485       -0.07584264011119
C           -1.86557170667366       -0.13562608548363       -0.05721808766106
O           -3.06459009693776       -0.28440631161609       -0.08215282589621
N           -1.00376477444232       -1.20620859681714       -0.03148274475654
C           -1.54064114865814       -2.55510401065094       -0.01818488134565
H            3.72817355024188        1.15498531966851        1.06265972682531
H            3.93104078821031        1.05925613785723       -0.69684817666223
H            2.69312062501242        2.12356169259442        0.00103833750455
H            3.41698208874439       -1.63213440307734        0.08516822257308
H           -1.71243276592833        3.17839901288544       -0.06017682286394
H           -2.87912535034763        2.18498124294615       -0.97567486318940
H           -2.92941047350706        2.18503248185307        0.78730011524158
H           -1.16759157145761       -3.07503502952845        0.86191099859836
H           -1.21159321567849       -3.08809704064586       -0.90833812616166
H           -2.62537986109126       -2.48321961563751        0.00533279894040
H            2.87383238247256       -4.14807325656763       -0.26728535172445
25
 energy: 21.155267028171 xtb: 6.6.1 (8d0f1dd)
C            3.20637906761226        1.16969504948691        0.10466092169848
N            2.23158540085683        0.09549441946167        0.04946207036198
C            2.39089235173588       -1.23491701938934        0.05580422838708
N            1.26154693803608       -1.92637485496512        0.03089324088040
C            0.31755660537658       -0.97154922496902        0.00492376528417
C            0.86869712318979        0.29499277426326        0.00955143490302
C            0.03874445823423        1.48160192842221       -0.01175816957451
O            0.43724979297186        2.62607719474846        0.00046273745594
N           -1.30361968833620        1.15191732785200       -0.04744890286416
C           -2.27020711882098        2.24510161553708       -0.07396410909264
C           -1.87492062939665       -0.13106505617206       -0.05528810161131
O           -3.07545334136079       -0.26384182774678       -0.08158849593259
N           -1.01518257261803       -1.19602831426200       -0.02998316205405
C           -1.53318115818950       -2.55027113298977       -0.02080507290640
H            3.72572721193062        1.16200920019287        1.06413725019291
H            3.93854078837666        1.05483411214625       -0.69381264146759
H            2.69701359800426        2.12830205233213       -0.00906344741053
H            3.39623056752063       -1.64222711762420        0.07982992409448
H           -1.71814720613044        3.18252201929647       -0.05799451966149
H           -2.88113096786640        2.18242461542478       -0.97455536912439
H           -2.93120161117729        2.18163706853050        0.79054227789190
H           -1.16181804512551       -3.07286693934332        0.85898297566615
H           -1.19736728561756       -3.07976823911016       -0.91084772340062
H           -2.61839453475776       -2.48620667637253       -0.00214220735497
H            2.98267492348764       -4.41246437257824       -0.25296500821399
25
 energy: 21.170952955295 xtb: 6.6.1 (8d0f1dd)
C            3.20624739142201        1.17536061006970        0.10332901025465
N            2.22735487144812        0.11098765684297        0.04917338208290
C            2.39757991512191       -1.22774998814518        0.05342372478677
N            1.24807678482850       -1.90609826178170        0.02665457087948
C            0.31671925252454       -0.95184417306425        0.00335107924157
C            0.86845847139991        0.31738916528136        0.01463948003558
C            0.03432512479460        1.49542425105495       -0.00894671729485
O            0.43072077762076        2.64614729230821       -0.00167522381967
N           -1.30759290016916        1.15768315708574       -0.04581047274351
C           -2.27474032972953        2.24901209929210       -0.07289649588321
C           -1.88038464081968       -0.12370030310140       -0.05390453732651
O           -3.08148889834754       -0.25469054873815       -0.08104786901902
N           -1.01924484550784       -1.18929936096676       -0.02963343514523
C           -1.52700445722081       -2.54441013986668       -0.02290773131142
H            3.72419250054363        1.16823776292857        1.06459643684006
H            3.94264416961224        1.05241541642942       -0.69148736130807
H            2.70145894114541        2.13465373318188       -0.01566677934408
H            3.38935769104334       -1.64094991855515        0.07479692296593
H           -1.72160689256151        3.18540209586562       -0.05604523295550
H           -2.88314797200929        2.18346068348999       -0.97428020309586
H           -2.93427002088159        2.18154693892031        0.79172537723347
H           -1.15812321904707       -3.06988220315006        0.85705600076532
H           -1.18763974620676       -3.07351001126011       -0.91267710263918
H           -2.61308085121191       -2.48654955111051       -0.00757249512102
H            3.01340355014390       -4.60000780083883       -0.23716043193135
25
 energy: 20.849295688203 xtb: 6.6.1 (8d0f1dd)
C            3.20713547278833        1.18221166822704        0.10407193168770
N            2.22239072303575        0.12891733259794        0.05133211588835
C            2.41128755493421       -1.21245806872885        0.05062643195924
N            1.26136561809382       -1.89336310503809        0.01894406367603
C            0.32086030458456       -0.94643467860257        0.00142551725443
C            0.86655314483967        0.32878985195797        0.01956913890652
C            0.03443713846944        1.49999829042055       -0.00840085602477
O            0.42607385144012        2.65520125511646       -0.00413563873228
N           -1.31085011808567        1.15913596466524       -0.04513597568280
C           -2.27632953845842        2.25025120774900       -0.07258360169710
C           -1.88119300706488       -0.11836571628419       -0.05320522682105
O           -3.08241416785215       -0.25511847621887       -0.08027452558102
N           -1.01784414732220       -1.18766949738487       -0.02945384086462
C           -1.52365861107856       -2.54113214203169       -0.02363351206696
H            3.72510556767070        1.17417632689667        1.06623263717567
H            3.94540328612280        1.05280765626910       -0.68927325844030
H            2.70721551243310        2.14332595931607       -0.01799226552354
H            3.39347343078055       -1.63183700912882        0.07052549908393
H           -1.72206798946665        3.18580331550001       -0.05592929751096
H           -2.88409254507036        2.18413985046109       -0.97410579407983
H           -2.93519851260299        2.18222872652883        0.79223385036173
H           -1.15774011883355       -3.06903892185194        0.85691305447508
H           -1.18457637055459       -3.07207122940374       -0.91301013207215
H           -2.61055873652498       -2.48565908529323       -0.00956335364375
H            2.97743692565812       -4.72481087356705       -0.22814306558031
25
 energy: 20.299227039843 xtb: 6.6.1 (8d0f1dd)
C            3.20985133850440        1.19126320622268        0.10420433165260
N            2.21971026667944        0.14903525625638        0.05328852260333
C            2.42962811491681       -1.19000372984181        0.04817014261762
N            1.29563215118825       -1.88327764612267        0.01272111102919
C            0.32920230673369       -0.95184763374890       -0.00043307339787
C            0.86400961339529        0.33150117427819        0.02369171536879
C            0.03764523795807        1.49892226087939       -0.00685004391186
O            0.42284082394039        2.65701043796059       -0.00428511650102
N           -1.31380095515836        1.15880507561524       -0.04442466708744
C           -2.27739737152652        2.25012382344879       -0.07250314550534
C           -1.87744184005890       -0.11388153982713       -0.05355381935507
O           -3.07860440422075       -0.26189017114245       -0.08073715438529
N           -1.01117409588767       -1.18893727094606       -0.03009053653653
C           -1.52103955155606       -2.53953429826852       -0.02436205535403
H            3.72771449353638        1.17969134755917        1.06660091832619
H            3.94680412545368        1.05622901309470       -0.68979049417201
H            2.71337814797661        2.15384582664670       -0.01856135483843
H            3.40495157857550       -1.62030320863432        0.06897629590332
H           -1.72306523109945        3.18569861525018       -0.05549670722697
H           -2.88524010445700        2.18519884753068       -0.97425699153740
H           -2.93695623330430        2.18287473354913        0.79198821009434
H           -1.15709564879965       -3.06921516705669        0.85661319855858
H           -1.18368596526592       -3.07227675367199       -0.91364525907721
H           -2.60851917130320       -2.48396761044567       -0.01023772792074
H            2.88486704171542       -4.81603598641359       -0.21999240319947
25
 energy: 20.034779950882 xtb: 6.6.1 (8d0f1dd)
C            3.21225872936908        1.19777515604801        0.10546658610526
N            2.22228943493405        0.15735807208871        0.05355457479158
C            2.43802367065262       -1.17653714345681        0.04775589388059
N            1.32161502677668       -1.88038277119531        0.01129332972752
C            0.33516080387348       -0.96105078938525       -0.00153636544012
C            0.86308627418954        0.32596567665738        0.02227867553192
C            0.04049957369647        1.49520691330553       -0.00810970991264
O            0.42254073208135        2.65275036327172       -0.00474138629270
N           -1.31435924188999        1.15757676595200       -0.04497363604070
C           -2.27699692402705        2.24908040032470       -0.07269648727221
C           -1.87266317864867       -0.11376130731489       -0.05370568420896
O           -3.07366055529096       -0.26889656582361       -0.08012048070550
N           -1.00472892487224       -1.19115583820536       -0.03093602866935
C           -1.52085376736730       -2.54062081783310       -0.02376694151751
H            3.72930622881817        1.18239811394049        1.06759038137969
H            3.94678296535620        1.06136950259630       -0.68956496401294
H            2.71583022174078        2.16032497404021       -0.01591796819677
H            3.41322550543800       -1.61409835274353        0.06985814663069
H           -1.72224609171962        3.18466784546035       -0.05624865931388
H           -2.88577482698906        2.18497280564144       -0.97418127963941
H           -2.93649867274302        2.18324026622788        0.79225093581551
H           -1.15699917280605       -3.07000542119645        0.85723301089336
H           -1.18570881188653       -3.07438829709489       -0.91310452078994
H           -2.60811200595176       -2.48271638311185       -0.00852377700973
H            2.81019767520200       -4.83004456602162       -0.22211974958645
25
 energy: 19.972210084868 xtb: 6.6.1 (8d0f1dd)
C            3.21308476078304        1.19941445208609        0.10473546169046
N            2.22525844619390        0.15668456162918        0.05296627032120
C            2.43813011185461       -1.17416464320028        0.04951254806942
N            1.32883875741364       -1.88197048183296        0.01490389068714
C            0.33684462636174       -0.96546044695326       -0.00092789163077
C            0.86306192929610        0.32151963014464        0.02074619860907
C            0.04124675074461        1.49334230763877       -0.00723521585772
O            0.42354401909404        2.64958347152598       -0.00278766472293
N           -1.31401834780021        1.15743980044981       -0.04488462548716
C           -2.27690485142772        2.24874817181069       -0.07279152454300
C           -1.87086835594930       -0.11488889670716       -0.05392969521308
O           -3.07178431465358       -0.27062826509729       -0.08079579474192
N           -1.00262153703648       -1.19156002959083       -0.03116559902885
C           -1.52139652229078       -2.54151674692966       -0.02377103799593
H            3.73030846476322        1.18251106589378        1.06622599613869
H            3.94588094484384        1.06294887235880       -0.69137743096816
H            2.71501399104742        2.16087581897828       -0.01567064263432
H            3.41548628640958       -1.61226685066654        0.07184943943453
H           -1.72249488542956        3.18460499036415       -0.05587127558234
H           -2.88544417794068        2.18499393123050       -0.97453346441045
H           -2.93701595644760        2.18302747637835        0.79176858069238
H           -1.15701610596762       -3.07030308389339        0.85693950917978
H           -1.18627943913775       -3.07462380451060       -0.91330472902730
H           -2.60830216241706       -2.48249246486375       -0.00839864126460
H            2.78966223562878       -4.81679023407125       -0.22516876556689
25
 energy: 19.971286465784 xtb: 6.6.1 (8d0f1dd)
C            3.21351925309798        1.19983879906264        0.10349247447382
N            2.22615057209347        0.15644347131562        0.05305140807122
C            2.43784541653967       -1.17343898132250        0.05028406896605
N            1.33071443489728       -1.88153897123178        0.01603006162060
C            0.33728609131912       -0.96657640729910       -0.00045423281438
C            0.86333388022942        0.32005452030566        0.02148635471498
C            0.04169129611690        1.49262554986353       -0.00519369705044
O            0.42391029015533        2.64827994231236       -0.00033140323379
N           -1.31394034104931        1.15744083938706       -0.04427023042204
C           -2.27708358881432        2.24867394066095       -0.07283993331566
C           -1.87010733011105       -0.11490769589338       -0.05433070579630
O           -3.07094871801224       -0.27165382527141       -0.08205873323461
N           -1.00170848620588       -1.19165616645911       -0.03146353815049
C           -1.52149125473318       -2.54153385741435       -0.02428286433812
H            3.73159123373507        1.18276030307922        1.06436923554018
H            3.94486078111367        1.06327528594709       -0.69380247987284
H            2.71466368458508        2.16094100333961       -0.01640208273092
H            3.41593103900181       -1.61227922081922        0.07317288863412
H           -1.72312414944580        3.18474460610899       -0.05505665562869
H           -2.88494020872562        2.18530014948804       -0.97508786035800
H           -2.93816535269131        2.18276367566086        0.79097352100041
H           -1.15722412337987       -3.07041434201237        0.85629827255394
H           -1.18634650508584       -3.07443183080776       -0.91388321448590
H           -2.60833115658697       -2.48214728023369       -0.00900354356137
H            2.78412790989277       -4.81353490559494       -0.22366321443453
25
 energy: 19.960747133951 xtb: 6.6.1 (8d0f1dd)
C            3.21316201579771        1.19969756800395        0.10568148574773
N            2.22645100492202        0.15560868291567        0.05234803279345
C            2.43706449746996       -1.17427435501052        0.04975805379258
N            1.32903706262635       -1.88277352918545        0.01602154301782
C            0.33682448524370       -0.96614686608577       -0.00117966736952
C            0.86296520470222        0.32035219182876        0.01864820607480
C            0.04108179805797        1.49309890597071       -0.00899138512744
O            0.42389194540518        2.64883718336264       -0.00410655927477
N           -1.31377670366474        1.15753505763459       -0.04560154340754
C           -2.27669503050448        2.24872394798884       -0.07283139029476
C           -1.87073305609811       -0.11565108478615       -0.05373819417244
O           -3.07165371689492       -0.27051141224999       -0.07989186761903
N           -1.00259126630113       -1.19131317703405       -0.03112685091571
C           -1.52172920108625       -2.54194121515286       -0.02311768391150
H            3.72965978660912        1.18185639730625        1.06735985193748
H            3.94629150704818        1.06378139475834       -0.68999900009922
H            2.71461254826920        2.16077601616736       -0.01429702887950
H            3.41556325937336       -1.61163727541546        0.07192827011809
H           -1.72204038992731        3.18446855913699       -0.05654967822421
H           -2.88583619202974        2.18469590573305       -0.97413445201703
H           -2.93606507344828        2.18319443790555        0.79230352201381
H           -1.15668542573740       -3.07017434441391        0.85749761996771
H           -1.18683271810076       -3.07495440772290       -0.91271455529572
H           -2.60848661595189       -2.48275592943022       -0.00736657856588
H            2.78873494215619       -4.81146405005338       -0.22886625414194
25
 energy: 19.955917279514 xtb: 6.6.1 (8d0f1dd)
C            3.21305382720013        1.19950397024794        0.10463746136497
N            2.22666967784183        0.15506554607013        0.05200294951836
C            2.43656462383496       -1.17487712578590        0.05107886790607
N            1.32778132844562       -1.88343088932489        0.01897205726071
C            0.33663581708273       -0.96552630513358       -0.00023962716897
C            0.86270330148813        0.32080981246806        0.01874715884141
C            0.04058585145966        1.49354170323058       -0.00777224736716
O            0.42405979977532        2.64929415430465       -0.00264891031569
N           -1.31362420148216        1.15776385627755       -0.04512919217062
C           -2.27674833219961        2.24873281469854       -0.07280438719086
C           -1.87108029087475       -0.11624198250262       -0.05364823174785
O           -3.07205164798239       -0.26952177077047       -0.08056070840534
N           -1.00314169897593       -1.19087246960691       -0.03055629118774
C           -1.52174791423179       -2.54198460816551       -0.02350165195034
H            3.73011053470643        1.18217675001442        1.06607584129614
H            3.94618898174659        1.06325161375622       -0.69125781375294
H            2.71431849206009        2.16028356599749       -0.01555930980182
H            3.41526132190045       -1.61139942676194        0.07268987244117
H           -1.72223266756036        3.18453581528254       -0.05601536618434
H           -2.88523153737582        2.18475503562138       -0.97452205488511
H           -2.93669374076376        2.18295890834740        0.79183717735025
H           -1.15701447472793       -3.07031030374651        0.85702134580381
H           -1.18620121105914       -3.07442020129301       -0.91318726858206
H           -2.60843452491640       -2.48275859319794       -0.00831935930867
H            2.79248335254429       -4.81230126785559       -0.23030641561613
25
 energy: 19.956440098024 xtb: 6.6.1 (8d0f1dd)
C            3.21315975368954        1.19969863990676        0.10497741286937
N            2.22691694528515        0.15517433970190        0.05170496290688
C            2.43659335003339       -1.17442895923374        0.05097106074895
N            1.32854600552085       -1.88305029052694        0.01917528714419
C            0.33689033275807       -0.96574702665515       -0.00056336250300
C            0.86277483752141        0.32046129719811        0.01805934641836
C            0.04067591895783        1.49336854656418       -0.00839048044762
O            0.42426939647795        2.64891283488565       -0.00308054931061
N           -1.31353225900346        1.15781779132817       -0.04542654799168
C           -2.27678155034004        2.24871304614844       -0.07280236441102
C           -1.87080156944251       -0.11643237242505       -0.05381597184176
O           -3.07178606234824       -0.26978710775913       -0.08043636948092
N           -1.00281053703149       -1.19089223115984       -0.03065703167974
C           -1.52171075601729       -2.54204036312048       -0.02324518624961
H            3.72999804616764        1.18182415637429        1.06651651640677
H            3.94624800571556        1.06376524210374       -0.69092778624140
H            2.71433023459070        2.16049947300541       -0.01483238622728
H            3.41541546229537       -1.61137775717541        0.07291680735787
H           -1.72239500984940        3.18459345942352       -0.05614628412545
H           -2.88559889484301        2.18479310351780       -0.97431708700094
H           -2.93652700385841        2.18297782126845        0.79200135671925
H           -1.15665927966215       -3.07019054333616        0.85727244172991
H           -1.18648777733726       -3.07458360111074       -0.91296022932062
H           -2.60842108497730       -2.48277265188722       -0.00771651059563
H            2.78990816363327       -4.81226824486448       -0.23124314872699
