  72
        -99.31662410
 N         -1.6464494119        3.3716951221        2.2805163327
 C         -1.9890781482        2.2043045104        1.8704815319
 C         -3.2805168735        1.9032677388        1.3835945667
 C         -3.5883866031        0.5674043441        0.9623376562
 C         -4.5615816773        0.3157267669       -0.0321343440
 C         -4.8907394539       -0.9642744762       -0.4279714319
 O         -5.7977579215       -1.2805889075       -1.3758172311
 C         -6.5813093385       -0.2588586285       -1.9492612730
 C         -4.2449147668       -2.0790323375        0.1803522255
 O         -4.6418787842       -3.2911437252       -0.2518242985
 C         -4.1411865193       -4.4457206216        0.3806051507
 C         -3.2796332699       -1.8387433869        1.1516729448
 C         -2.9523766144       -0.5506679672        1.5305151781
 C         -1.9605978875        2.2673972747       -2.4850855133
 C         -1.5253223577        1.0017783393       -1.8772071416
 C         -0.1787984554        1.0284405981       -1.2809312334
 N          0.4197002859       -0.0353324406       -0.7672450144
 C          1.7947421302        0.0227439113       -0.3310874252
 C          2.7551125953       -0.5105961500       -1.4128373500
 C          4.1823522675       -0.3613763641       -0.9648776115
 C          4.8483342965        0.8423872023       -1.1339471376
 C          6.1594251248        0.9947069103       -0.7117327718
 C          6.8332474825       -0.0570731576       -0.1069054147
 O          8.1030133733       -0.0258954623        0.3356583288
 C          8.8608566836        1.1511549878        0.1730877588
 C          6.1571127637       -1.2958470065        0.0747248001
 O          6.8862667591       -2.2629607487        0.6646409327
 C          6.3209288061       -3.5381788862        0.8534456695
 C          4.8444647876       -1.4227751461       -0.3528815685
 C         -0.2211956847       -1.3257062509       -0.7916094672
 C         -4.3242336113        2.9845146838        1.3328960663
 C         -4.6136577369        3.4963700491        2.7505290506
 C         -3.8897952736        4.1421049373        0.4306239055
 H         -5.0402282435        1.1530706257       -0.5122520017
 H         -7.1466306610        0.2878097984       -1.1882096866
 H         -7.2744723299       -0.7643197044       -2.6178713440
 H         -5.9704967795        0.4431464090       -2.5242440205
 H         -4.3524830756       -4.4375770243        1.4531762399
 H         -4.6616228934       -5.2803609660       -0.0836668146
 H         -3.0638982180       -4.5566540888        0.2212282122
 H         -2.7921849767       -2.6661122601        1.6434297907
 H         -2.2382357903       -0.4157335568        2.3267851992
 H         -2.8892533906        2.3019742964       -3.0173721980
 H         -1.3949297024        3.1695145788       -2.3728690207
 H         -2.2597069839        0.7031454932       -1.0992437164
 H         -1.5933143823        0.1862170091       -2.6180710667
 H         -1.2604535769        1.3825183739        1.8331387251
 H          0.3592833675        1.9621966553       -1.2414001772
 H          1.9070635169       -0.5704599593        0.5804283677
 H          2.0555142607        1.0574711394       -0.1018522439
 H          2.5945995034        0.0582422949       -2.3306043431
 H          2.5343230096       -1.5596352776       -1.6133718269
 H          4.3507748319        1.6721452523       -1.6125869964
 H          6.6531858711        1.9401596611       -0.8649484997
 H          8.4185624849        1.9907994619        0.7176560567
 H          8.9679758758        1.4153713221       -0.8831067732
 H          9.8406802498        0.9268362572        0.5902289301
 H          7.1019482744       -4.1377378814        1.3170036409
 H          5.4534332663       -3.4982326784        1.5199173335
 H          6.0322136332       -3.9939396731       -0.0986833029
 H          4.3266905563       -2.3608405010       -0.2264690048
 H         -0.3642372261       -1.6766641600       -1.8171218204
 H         -1.2007512689       -1.2723936669       -0.3092547660
 H          0.3935159242       -2.0466160450       -0.2590727565
 H         -5.2558654993        2.5624780804        0.9457773124
 H         -3.7191969972        3.9514259648        3.1639661598
 H         -4.9296274827        2.6793180472        3.3946206647
 H         -5.4060747100        4.2388313778        2.7153968669
 H         -2.9900572995        4.5967120910        0.8363396690
 H         -3.6821677789        3.7894767100       -0.5788063064
 H         -4.6736415527        4.8923180858        0.3847029970
 H         -0.6908598808        3.4904668332        2.5938587771
