25
 energy: 52.049505720386 xtb: 6.6.1 (8d0f1dd)
C            3.09746849873798        1.85772071768242        0.15186864000494
N            2.44543292604284       -0.11477919145725        0.01263330109659
C            2.67067283852761       -1.41239658150550        0.15829057301160
N            1.49075758917694       -2.13822235934077        0.12830815969120
C            0.45638585387660       -1.25513138195389        0.00720071867211
C            1.05990832315861        0.00190906861396       -0.02829412307656
C            0.22705954271567        1.15720101573018       -0.15227565589606
O            0.55386341717314        2.30401990371950       -0.41457287698492
N           -1.16575150283247        0.92305851616852       -0.03940329789661
C           -1.99954126024050        2.11202175998113       -0.01537833065500
C           -1.76718950856992       -0.28908759893598       -0.05766416827975
O           -2.97112915548534       -0.42043242886095       -0.08078267568790
N           -0.91325185574298       -1.42500269176096       -0.04746273997100
C           -1.64046147724052       -2.68057497950768       -0.09286178829418
H            3.63479225010272        2.04548126133675        1.02406802135071
H            3.61839243721393        1.91448578593858       -0.77631195012681
H            2.11437206568041        2.24422451287943        0.12454961736082
H            3.59392503882864       -1.97140902392016        0.17291697384569
H           -1.38283166384325        2.99058642735320       -0.03185813572032
H           -2.60777784474708        2.17695255858254       -0.89667090595845
H           -2.54317513196661        2.16493277367630        0.91477597728174
H           -1.49959781363153       -3.28071640503466        0.80881242748117
H           -1.35112499087929       -3.25513983659125       -0.97174993716571
H           -2.70288629305280       -2.39042021020325       -0.16200948788989
H            1.43446245935963       -3.14393178783278        0.13889819021542
