25
 energy: 27.113123642629 xtb: 6.6.1 (8d0f1dd)
C            3.05153885689003        1.55128121013989        0.10616244375019
N            2.45149695061546        0.05979168714916        0.07310806823610
C            2.71393960132015       -1.34814188977700        0.15454559728052
N            1.51175891496298       -2.07243175623048        0.08438398070966
C            0.46689364397539       -1.21259871006436        0.00291183227626
C            1.03295381259582        0.06390683258773       -0.00403166280741
C            0.20477857654805        1.18948798300723       -0.11127416228326
O            0.55962038803469        2.35443171075644       -0.32407763961577
N           -1.19306022152173        0.94092173127838       -0.03909475900096
C           -2.03665026051214        2.11730408794451       -0.02403265889993
C           -1.77813674744043       -0.27470884808016       -0.05674922688989
O           -2.98238337261458       -0.42934756409236       -0.07892529472682
N           -0.90796852810928       -1.40214140820482       -0.04776070021723
C           -1.61073312814091       -2.67086527670722       -0.08657235803249
H            3.57861887651090        1.85571679487429        0.99695128495222
H            3.69362839943254        1.78784368520453       -0.75133034996761
H            2.17425277473759        2.19139051179855        0.04940374050222
H            3.61357611789946       -1.92309832075006        0.12288576894762
H           -1.42256835065512        3.00033479896231       -0.03170303502286
H           -2.63819106943785        2.16764263901521       -0.91383984778451
H           -2.59823805991376        2.15921194749120        0.89710860894049
H           -1.44920537756618       -3.26810336333923        0.81387256834893
H           -1.32247832388632       -3.24198494949913       -0.96906272454717
H           -2.67881247578457       -2.40579296830398       -0.14054876266234
H            1.42179896482650       -3.08491006956542        0.09807643298786
