25
 energy: 2.316565166183 xtb: 6.6.1 (8d0f1dd)
C            3.13678290908608        1.35728601058685        0.08824704541706
N            2.38837535527926        0.07813315500391        0.05588471700192
C            2.65301218138551       -1.31352581910229        0.05811190324681
N            1.44183688173203       -2.01289823711673        0.03090955777624
C            0.42688260346576       -1.13051834320712       -0.00355214658431
C            0.98056521436246        0.14086351890251        0.00895939591882
C            0.16459591956490        1.28023131613989       -0.03584050469230
O            0.55145972213365        2.44542478713740       -0.10542196808222
N           -1.23620386234276        0.99201087295776       -0.03386039060794
C           -2.13205039037786        2.12784253167920       -0.03877461006259
C           -1.81152291993453       -0.23645614622490       -0.05179447150765
O           -3.01494017835341       -0.41120795352941       -0.07440665641593
N           -0.93139491001424       -1.34322545970218       -0.04206088596345
C           -1.54390923125713       -2.65063573128855       -0.07178806319486
H            3.68256966028802        1.54472831867912        1.02813637114540
H            3.89972213242325        1.43952510249823       -0.70863922298330
H            2.41947620572830        2.16124186217672       -0.02652855627247
H            3.59448298200612       -1.80586088217533        0.06007812341895
H           -1.54720628771448        3.03758194012201       -0.02736048290933
H           -2.73225938198205        2.12712036378728       -0.93907372349372
H           -2.74222336181654        2.11891257827442        0.85584827246086
H           -1.31113249046859       -3.22810647072322        0.82498065579751
H           -1.23672482855010       -3.20275188132338       -0.96192107599789
H           -2.62243446221499       -2.47298299018535       -0.10179194809833
H            1.30308002851603       -3.01414547011306        0.02726548215963
