25
 energy: 34.261568240018 xtb: 6.6.1 (8d0f1dd)
C            3.58469897080739        3.25153301692898        0.15427960117093
N            2.35349428189021       -0.74617901933217        0.02436237955878
C            2.38601808616897       -2.03623551757079        0.06338587923404
N            1.13265239304650       -2.60690935318296        0.01896531598212
C            0.25252476517783       -1.57497840675318       -0.04221488162817
C            1.02783321840557       -0.41851392219243       -0.04928262129201
C            0.40044101635313        0.86715567182564       -0.15145535579260
O            0.92716896071086        1.94480105124814       -0.26613255030603
N           -0.99980993954942        0.78113475662417       -0.06117647545503
C           -1.70740321610196        2.04319385160984        0.05175913337306
C           -1.76923707390179       -0.35146904627946       -0.05065385489997
O           -2.97876170302065       -0.29150792357259       -0.02964336049853
N           -1.10900843793999       -1.58555841696004       -0.08075173970643
C           -1.96266473643803       -2.75425754849726       -0.15721966762321
H            4.09088320283477        3.58467279862688        1.00845671974803
H            3.91736719141434        3.53572008187802       -0.80541074415730
H            2.56496462750025        2.97357932779444        0.25969207368541
H            3.26723680442635       -2.63712528720936        0.13774059101008
H           -0.97673440884150        2.82852476484485       -0.07885927775976
H           -2.44957906768160        2.12437714523013       -0.73809886823975
H           -2.17178954650849        2.13041036858512        1.02101341678578
H           -1.96551931337195       -3.33209788999837        0.76614199589408
H           -1.71991043973885       -3.37904040289381       -1.01902249247027
H           -2.98548877938539       -2.38802370948701       -0.25737544044793
H            0.93205324599361       -3.59077634269750        0.02388737737217
