25
 energy: 46.742106154465 xtb: 6.6.1 (8d0f1dd)
C            3.14543679503783        2.21193318510755        0.18563642975513
N            2.44521525616835       -0.26592930796189        0.01608193135445
C            2.61039472017348       -1.54450759739305        0.15297481795464
N            1.43045435651444       -2.25759040390934        0.12354089814251
C            0.43377266311508       -1.33467879281395       -0.01886872927354
C            1.07774631162707       -0.09477657565596       -0.09740390855695
C            0.27801325968839        1.09467810617061       -0.27970823843923
O            0.63090797513544        2.19367224358682       -0.64670089028950
N           -1.10460006918389        0.89631604369678       -0.05277286973978
C           -1.90534600737714        2.10741556413671        0.01682331747529
C           -1.73905919050499       -0.30777574256652       -0.05923549320276
O           -2.94631936265118       -0.39044021833984       -0.06300528006663
N           -0.93184666161143       -1.47444745795488       -0.06557682305534
C           -1.71958149064270       -2.69668572207022       -0.11672580209323
H            3.83798732472903        2.36355050786778        0.94389560883337
H            3.41056359448375        2.32006137577267       -0.82961622698437
H            2.12255723374601        2.33773877713174        0.40836234506024
H            3.52759392085436       -2.08625886145789        0.28432150866278
H           -1.26986977629144        2.96366109547061       -0.04416347796780
H           -2.58111133156134        2.18188986000882       -0.80329893283167
H           -2.38143924049812        2.17922550708629        0.98375856465431
H           -1.64167000012303       -3.30486710122294        0.78989653493044
H           -1.43750544050576       -3.29138562505303       -0.98300191254694
H           -2.76302630312757       -2.33281525361928       -0.21816194015928
H            1.39056037294982       -3.26313812631157        0.19378513106679
