25
 energy: 38.836357352352 xtb: 6.6.1 (8d0f1dd)
C            3.48606512764439        3.02433682127549        0.17835909191573
N            2.38714714779875       -0.65523056172937        0.01937951444383
C            2.43923102833769       -1.94413820715263        0.08254085007988
N            1.19798303977353       -2.54191574111369        0.04313170174495
C            0.29608304520814       -1.53235377560283       -0.04563880498688
C            1.05347961967796       -0.36110134545923       -0.07412274078759
C            0.38390533238808        0.89883744472102       -0.23586170573876
O            0.87926026075672        1.97655589536335       -0.43201208683734
N           -1.01148978702648        0.79881119960332       -0.08276924239726
C           -1.72642705455063        2.05310826152157        0.09067823904796
C           -1.75062383783028       -0.34804534582316       -0.04749893856555
O           -2.96106972697678       -0.30853011729593        0.00072801952931
N           -1.06738977480637       -1.57009856637516       -0.09017833502670
C           -1.93131785616001       -2.72955760563253       -0.18373068426638
H            4.06624759973538        3.35716628410271        0.96850095130187
H            3.71784204253011        3.35983914068957       -0.77725310192699
H            2.45348004197068        2.84718749218376        0.36211390159431
H            3.32400633695825       -2.53288889837199        0.17425447881924
H           -1.02391421943293        2.86032060920175       -0.06226779290768
H           -2.50165345934168        2.13862005129937       -0.65985133312177
H           -2.09728658228511        2.12025583557939        1.09922641409679
H           -1.99873661719466       -3.29836600397289        0.73775981458571
H           -1.66338974488603       -3.36967116006303       -1.01697568278968
H           -2.94625468550992       -2.34106166114798       -0.31487904180179
H            1.02571194682970       -3.53078187866321        0.06503894927279
