25
 energy: 9.120253382573 xtb: 6.6.1 (8d0f1dd)
C            3.09347886802251        1.41951721218071        0.08668416704682
N            2.41688809232204        0.07461988345064        0.07030804473539
C            2.68012826591728       -1.33179773018922        0.07616949483932
N            1.46750696040008       -2.03569500636159        0.04233930049323
C            0.44267329342941       -1.15929518638823       -0.00084459512043
C            1.00085499156416        0.11253144638358        0.00811242363997
C            0.18047476135821        1.24682085693935       -0.05507658337100
O            0.55166205356086        2.41293734726340       -0.17315897367399
N           -1.22308504795832        0.97261485098853       -0.03530127515061
C           -2.09999432624650        2.12322776343301       -0.03463781003888
C           -1.80162477283169       -0.25130628467190       -0.05374754327345
O           -3.00509953747828       -0.42360726224792       -0.07706715775384
N           -0.92224079893583       -1.36321041631635       -0.04376303805117
C           -1.56530082550626       -2.65782173106382       -0.07569631869517
H            3.64574104248730        1.65307371697395        1.01244815376610
H            3.83791796596673        1.56277263925247       -0.72143563124902
H            2.32388244998395        2.17110121133774       -0.00925411658140
H            3.60508692939569       -1.85529088296851        0.06917591290960
H           -1.50545324797212        3.02408953985479       -0.02850104673281
H           -2.69976234509080        2.14028350842910       -0.93215664531078
H           -2.69436553272843        2.13253062097189        0.86880012033620
H           -1.35613810430489       -3.24190738306182        0.82269410650489
H           -1.26513786382341       -3.21631231152433       -0.96347175121211
H           -2.64072101063738       -2.44984019909515       -0.11262716390698
H            1.33902645127074       -3.04159482488166        0.04847120961703
