25
 energy: 36.551860478782 xtb: 6.6.1 (8d0f1dd)
C            3.53400315836736        3.13913279437752        0.16207723166601
N            2.37057288628589       -0.70060136770804        0.02231400922114
C            2.41264044526972       -1.99013166207193        0.07296858562350
N            1.16536280601804       -2.57446956810045        0.03188107442002
C            0.27402229969786       -1.55375454930982       -0.04307685908154
C            1.04127584194903       -0.38999772382073       -0.06093884166502
C            0.39368564642450        0.88293207714221       -0.19378162938144
O            0.90418066513286        1.96169972250265       -0.34884568730836
N           -1.00381007948193        0.79045524364153       -0.07385678458976
C           -1.71258200028144        2.04928478832618        0.07414888504139
C           -1.75968378548324       -0.34889263413206       -0.04929450538510
O           -2.96980487451361       -0.29903593583202       -0.01483174220708
N           -1.08873767879379       -1.57750455431693       -0.08459394685723
C           -1.95061056882638       -2.73970739034120       -0.17012866569822
H            4.07681763701366        3.47544115596881        0.98276261340669
H            3.81747560086832        3.44309782174129       -0.79941022617417
H            2.50619465681042        2.91060882830203        0.30749963900503
H            3.29454008605805       -2.58506846598869        0.15561856504579
H           -0.99665358872183        2.84604491167707       -0.06902878534931
H           -2.47259897506232        2.13316429571589       -0.69736953127725
H           -2.13410715541967        2.12652336369334        1.06173596636440
H           -1.99914065575550       -3.30747692775130        0.75562924375400
H           -1.69325280170327       -3.37459770898567       -1.01490979010962
H           -2.96873729675376       -2.36129964165370       -0.28794849183486
H            0.97908773786312       -3.56086961824952        0.04501216594632
