25
 energy: -2.688374769684 xtb: 6.6.1 (8d0f1dd)
C            3.18227846595226        1.30135881677939        0.08960487963387
N            2.36285289604413        0.09283612602272        0.03823990955302
C            2.63278934118663       -1.28563755753271        0.04275947464139
N            1.42635115089898       -1.98098136784513        0.01683916525782
C            0.41453985239583       -1.09925282633857       -0.00807533595032
C            0.96149271144142        0.17441776688740        0.00731783733508
C            0.14909380614061        1.31885762332919       -0.02237553455139
O            0.54259900733489        2.48547929048425       -0.05832002156551
N           -1.24696729112871        1.01353602192163       -0.03208393409845
C           -2.16408111750528        2.13331740109543       -0.04238505229742
C           -1.81682484261041       -0.22010716492115       -0.04939288899760
O           -3.01946114835098       -0.39593236807623       -0.07134560154743
N           -0.93752002790079       -1.32324211658828       -0.04054288489212
C           -1.52084375029885       -2.64304851259122       -0.06729155209991
H            3.71131812005761        1.43625211111581        1.04596038934300
H            3.95625196160399        1.31109859436965       -0.69388946655621
H            2.52046317335511        2.15366669680727       -0.04485441242859
H            3.58753515069170       -1.75221286312007        0.05202889493297
H           -1.59097846548868        3.05307695532201       -0.02685719403690
H           -2.76472048397562        2.11264587115283       -0.94502424372748
H           -2.78953829586610        2.10369861146395        0.84340667258561
H           -1.26461299273561       -3.21299534394364        0.82806494071382
H           -1.20639067101579       -3.18915789755355       -0.95934623459951
H           -2.60228132067585       -2.49601765048728       -0.09120110558660
H            1.29721929565049       -2.97901099938777        0.00301138823825
