25
 energy: 32.474632690452 xtb: 6.6.1 (8d0f1dd)
C            3.62917583827068        3.36725854725127        0.13850889340501
N            2.33620475111267       -0.79063259207931        0.02897817263378
C            2.35904305265695       -2.08110207145928        0.05220955201631
N            1.09973036200154       -2.63886940040547        0.01017863657737
C            0.23078679406376       -1.59602721414609       -0.03817878584340
C            1.01455449599466       -0.44667904937323       -0.03376073125276
C            0.40361395287261        0.85173589238446       -0.10726200986370
O            0.94761712561036        1.92548917866562       -0.18539875880060
N           -0.99822264375315        0.77337179328541       -0.04787452518155
C           -1.70389593252474        2.04024245042661        0.03109803413093
C           -1.77974177938251       -0.35423834718221       -0.05358136350248
O           -2.98863955662043       -0.28556897546773       -0.04584619072300
N           -1.13002734585375       -1.59274473749514       -0.07746786725431
C           -1.97520029908711       -2.76976948114796       -0.14420663521735
H            4.10043727527788        3.70559577399246        1.01627196371009
H            4.02179252573814        3.62741022051406       -0.81173267411072
H            2.62143027893731        3.03720377520559        0.20938022234726
H            3.23918108551612       -2.68653124690011        0.10821945029631
H           -0.96003557558601        2.82246296105217       -0.08921591849056
H           -2.43037599829371        2.10976681629417       -0.77686406321380
H           -2.21005354508572        2.12586372799245        0.98600171929934
H           -1.93307457571319       -3.35609998294990        0.77424266827691
H           -1.74639295183562       -3.39070603880550       -1.01644046717293
H           -3.00240040494918       -2.41829252981666       -0.22852425859810
H            0.88601431949725       -3.62035921771817        0.00806171404237
