25
 energy: 49.191134710931 xtb: 6.6.1 (8d0f1dd)
C            3.12750951992080        2.10672936018487        0.16981281842801
N            2.44627806613908       -0.21971631041297        0.02249481327299
C            2.63059247505370       -1.49777095634034        0.15687798661915
N            1.45578705187270       -2.22068454208978        0.12919084914817
C            0.44539393623664       -1.31057390763272       -0.00739020506813
C            1.07591489858227       -0.06492458926823       -0.07377629577468
C            0.26157587747927        1.11390451823303       -0.23761261438102
O            0.60348599217321        2.22628088017666       -0.57653492783959
N           -1.12380650193341        0.90207756577876       -0.04593988799198
C           -1.93432127762740        2.10702251824802        0.00445104676510
C           -1.74599329504700       -0.30495132893946       -0.05892949018018
O           -2.95104435380043       -0.40288508582300       -0.07707920733065
N           -0.92200427983793       -1.46005781120371       -0.05763880302391
C           -1.69180021641632       -2.69367539105236       -0.10766041184180
H            3.76080459229688        2.26981415892839        0.97321316864147
H            3.48067939875095        2.19010621073796       -0.82650211087209
H            2.10585431422377        2.30389578984253        0.31849252975313
H            3.55550156788766       -2.03725643318932        0.26192271617572
H           -1.30551019488811        2.97142861401770       -0.03871280241939
H           -2.57740163471640        2.18464407013401       -0.84265396922781
H           -2.43651073449934        2.17652251797704        0.95661901443219
H           -1.59301754814903       -3.29923359039268        0.79708925376259
H           -1.40935630734203       -3.28007765766515       -0.97938765909909
H           -2.74155598841093       -2.34976403854004       -0.19550675409816
H            1.42691280133642       -3.22512557380481        0.19322660242903
