25
 energy: 30.164753357596 xtb: 6.6.1 (8d0f1dd)
C            3.72428139771723        3.61376379214806        0.11814584424929
N            2.30103783976589       -0.89211683149638        0.04416371842680
C            2.29828275861271       -2.18241478673607        0.03223310969614
N            1.02632694549743       -2.71024684094489       -0.00912191636891
C            0.18616348528793       -1.64270975576775       -0.03174979885947
C            0.98849900410697       -0.51072602131287       -0.00027077798107
C            0.40776997952526        0.80923693689279       -0.01757268516669
O            0.97991305249771        1.87244735502787       -0.01369800737253
N           -1.00019074102550        0.75084729289473       -0.02620332702763
C           -1.71281007394748        2.02108812758431       -0.00382223303863
C           -1.80246645283144       -0.36780115285883       -0.05818132813311
O           -3.01033933356528       -0.29002444643043       -0.07605756245484
N           -1.17038505856943       -1.61187101119703       -0.07102398761101
C           -1.98364092621675       -2.80778783590048       -0.11770272708943
H            4.11273433757343        3.92980429982209        1.06253593783819
H            4.24064141810882        3.85389606183890       -0.78212633682628
H            2.76578429345436        3.15365100453616        0.10254883495446
H            3.17502229979620       -2.79643684057895        0.06108029347187
H           -0.97182058421403        2.81738638416045       -0.05361146714038
H           -2.38984708905920        2.08093248760536       -0.85550701423361
H           -2.29911200660358        2.09919491140432        0.91155633179882
H           -1.85874371166501       -3.40308134076217        0.78712355493969
H           -1.75433147050785       -3.41024134467954       -0.99637539724514
H           -3.02463897132578       -2.49310539522563       -0.17427659644337
H            0.78488494873400       -3.68673447729182       -0.02271888167373
