25
 energy: -5.837464899055 xtb: 6.6.1 (8d0f1dd)
C            3.22127164957366        1.24240338537326        0.09008923387431
N            2.33324272163613        0.10601036587983        0.03366559231948
C            2.61519458638805       -1.25675609725466        0.03444767571062
N            1.41806121613959       -1.95246772290045        0.00502287211030
C            0.40451198489719       -1.07265454336358       -0.01006051496457
C            0.93986249032094        0.20720931152296        0.00900590295445
C            0.12881211853465        1.35709505643050       -0.01229510911212
O            0.50748339297410        2.52988042920371       -0.02845162921822
N           -1.25978967890396        1.03360394666390       -0.03094204413651
C           -2.19515662632579        2.14084097758187       -0.04609757400516
C           -1.81971324982909       -0.20552605127031       -0.04794994253836
O           -3.02028449320033       -0.38642007856388       -0.06995846413230
N           -0.94088069394226       -1.30658408954721       -0.03876007147385
C           -1.49541632846171       -2.63943554424409       -0.06335122917874
H            3.72616057089610        1.32735636377507        1.06079975087396
H            3.99660465907894        1.17773167371223       -0.68238012186571
H            2.61747842647897        2.13599507234919       -0.06522755657030
H            3.58191042606289       -1.69742917293984        0.04583326894738
H           -1.63049941635404        3.06880034748210       -0.02605151948516
H           -2.79540603930241        2.10178643415612       -0.95089894634412
H           -2.83527762648288        2.08978181100932        0.83051870041375
H           -1.21483013249428       -3.20086598049360        0.83024896527198
H           -1.17378907403940       -3.17967228732331       -0.95687302168946
H           -2.57942863850472       -2.52467398478518       -0.08171861693641
H            1.33091659443353       -2.95430051702173       -0.00992000188047
