25
 energy: 29.881782126730 xtb: 6.6.1 (8d0f1dd)
C            3.72547812144790        3.66065820010805        0.12579046660805
N            2.28726135923934       -0.91110348465008        0.03878217679278
C            2.28372895647248       -2.20226194262026        0.02307954383348
N            1.01059783898197       -2.72682905076953       -0.01986484562802
C            0.17293961996609       -1.65748496340985       -0.03116910674348
C            0.97709822141595       -0.52625641536243        0.00538212115474
C            0.40178795654965        0.79640878231221        0.00934469398754
O            0.98434589301030        1.85422840496977        0.03666413875625
N           -1.00539098708043        0.74248799239973       -0.02344080567230
C           -1.72536233556746        2.00891423564768       -0.01075839783832
C           -1.80975865881928       -0.37585015468772       -0.05743920594561
O           -3.01712301798334       -0.29463427595235       -0.08030429663333
N           -1.18197841984087       -1.62195977894260       -0.06702599391338
C           -1.98649632759217       -2.82410387147516       -0.11171144639436
H            4.09774648236383        4.03296054020342        1.05708460313385
H            4.30037939019800        3.80359761955535       -0.76506318026010
H            2.79050735791820        3.14291538567379        0.08709332631307
H            3.16040818428596       -2.81768453265648        0.04286848693865
H           -0.99380299532686        2.81368976473767       -0.03739931003523
H           -2.38713145073376        2.06729989906097       -0.87433433684438
H           -2.33200919360499        2.08206577744631        0.89192459674583
H           -1.83181597091935       -3.42532104086735        0.78626038385204
H           -1.74392719446783       -3.41364159941449       -0.99764957247950
H           -3.03041513500655       -2.51599163190723       -0.15973843040083
H            0.76514661006528       -3.70307507065625       -0.04134169713164
