25
 energy: -42.119888002897 gnorm: 0.008387637130 xtb: 6.6.1 (8d0f1dd)
C            2.33064635887238        0.02458104520699       -1.64542043358579
N            1.71200187570684        0.16135718206876       -0.53624020558949
C            2.11591793514769       -1.61469306812998        1.13821348227618
N            2.42803995262009       -2.37669402263623        0.19216758286712
C            1.74180794573176       -0.21405072339016        0.83049316845508
C            0.45283986245445        0.19158297811478        0.11151563176616
C           -0.15301131853732        1.56402464928137        0.48538154272733
O            0.46853927281089        2.50246007375702        0.88749779185727
N           -1.48056619578350        1.41879059944799        0.27333408811741
C           -2.47025393258116        2.44468370308740        0.51345749744836
C           -1.81855582786847        0.13749270932653       -0.18745130234286
O           -2.90878571951620       -0.25045614067907       -0.46506161347721
N           -0.63674670012172       -0.58640951237368       -0.27985893623895
C           -0.62714687855225       -1.97889277797899       -0.66282483055818
H            2.08926327413141        0.52178043637376        1.55192738232718
H            3.37742692175793       -0.24179793321611       -1.65194707097828
H            1.81323372209928        0.20902597929364       -2.57700242241972
H            2.10397947472480       -1.86807388988355        2.20146640821751
H           -2.00086774323104        3.41977882823159        0.39843576263119
H           -3.28142265886759        2.31811841015308       -0.20173563869448
H           -2.87122395239149        2.35489547935232        1.52449590181726
H           -0.57713580860702       -2.62382629436479        0.21707208817188
H            0.21912429603534       -2.19217146823776       -1.31518363257594
H           -1.56240745246516       -2.17480437374537       -1.18660439102207
H            2.69573481053739       -3.32846332746101        0.41504376669903
