  25
        -42.18818981
 C          3.2240842269        1.1327602565        0.0691606033
 N          2.2627425453        0.0669552331        0.0005419988
 C          2.5348655660       -1.2511765612        0.0275401731
 N          1.3778085759       -1.9541230635        0.0305330165
 C          0.3439114204       -1.0727328511        0.0118696629
 C          0.8914888627        0.2155356482       -0.0072253898
 C          0.0506851399        1.3216945776       -0.0385989824
 O          0.4938271856        2.5863760357       -0.1700027860
 N         -1.3061316597        1.0919383077        0.0503693923
 C         -2.1772987439        2.1099573820        0.1363927096
 C         -1.8783621401       -0.2270801186        0.0030192586
 O         -3.0693396982       -0.3739764217       -0.0074676407
 N         -0.9954851501       -1.2916467767       -0.0223210314
 C         -1.5297790949       -2.6410117418       -0.0500581876
 H          3.4326374268        1.3896086523        1.1100860202
 H          4.1505619281        0.8272677925       -0.4120098220
 H          2.8229163256        2.0131023428       -0.4275735739
 H          3.5143824925       -1.6794077895        0.0358305113
 H         -1.8594130565        3.0988980263        0.3987661572
 H         -0.2428032157        3.1430199295       -0.4754097536
 H         -3.2170084833        1.8798477020        0.0921686672
 H         -1.2796290302       -3.1697968007        0.8701390857
 H         -1.1387732083       -3.1809682362       -0.9121828832
 H         -2.6127413376       -2.5691991219       -0.1340773362
 H          1.3128944179       -2.9605344267        0.0372761992
