25
 energy: -42.153063085342 gnorm: 0.002370270956 xtb: 6.6.1 (8d0f1dd)
C            3.03158435809248        1.15279967846921       -0.03951922322438
N            2.13500957122451        0.05084706568953        0.17865198798513
C            2.51881636205689       -1.18725820732675        0.49420800132341
N            1.43612940565904       -1.97921249341607        0.56982776615476
C            0.32138098165872       -1.21975780202751        0.28720336082132
C            0.76323711928409        0.07646543366426        0.04904997839692
C           -0.01250551487124        1.33239749482281       -0.16014741626101
O            0.54555975405549        2.42736920747332       -0.02585622649190
N           -1.28369652759425        1.12562295837542       -0.44773643314637
C           -2.18339960920849        2.19981527549866       -0.63614424977194
C           -1.34009326402142       -2.21971721057642        1.54468376178193
O           -1.12917792405844       -2.52674165377088        2.65461605254083
N           -0.97113645099533       -1.77338315602161        0.38890247361877
C           -1.86326752740636       -1.74124193147270       -0.76583424519631
H            2.57435815534195        2.07136809874842        0.33288824147473
H            3.97556984468526        0.96340779302686        0.46667144734562
H            3.21398643195412        1.28308054682699       -1.10855550808011
H            3.52818737145161       -1.49938366655987        0.66859869968719
H           -1.80304885327085        3.13562308786075       -0.20939733393543
H           -2.36164181806019        2.35328150818544       -1.70677436394592
H           -3.13853696625858        1.94062318177514       -0.17195867800693
H           -1.45405974219493       -2.36322601290107       -1.56188446189043
H           -1.94382863229811       -0.70512263627987       -1.10537970087971
H           -2.83935044204917       -2.11897050843304       -0.47484728042672
H            1.44035543092742       -2.96044751002660        0.80990496802926
