25
 energy: -42.098081848601 gnorm: 0.006140365481 xtb: 6.6.1 (8d0f1dd)
C            3.11393629845876        1.14209813455435        0.02706663861831
N            2.27478195645315       -0.05076722596223       -0.00914157364665
C            2.86323030788397       -1.19775526458028       -0.03110651884123
N            0.93771808681116       -2.36785850427049       -0.01410564318722
C            0.26335992748441       -1.27420183424867       -0.00357344949725
C            0.90836927632279        0.01553979026414       -0.00121064484814
C            0.12055555391673        1.23202848397871       -0.01414471332313
O            0.57862380641855        2.35861222150739       -0.03923858414053
N           -1.25093205465288        1.02259798325186        0.00016022237520
C           -2.12450819740735        2.18311636924101       -0.00317104200340
C           -1.89975527106331       -0.20003705250948        0.01116504045153
O           -3.09858626483802       -0.28142200220304        0.02233886116260
N           -1.09374300712609       -1.33249394940978        0.00587980673962
C           -1.71997293858800       -2.64005675951517        0.00492586920238
H            3.57270409866038        1.23533191683642        1.01230064963716
H            3.90133150480629        1.06742252042759       -0.72132120216992
H            2.50511002131976        2.02835158748735       -0.16110165233271
H            3.91428422130547       -1.40810812257011       -0.02333034560478
H           -1.50997741326455        3.08066100331991        0.00452444677398
H           -2.75919470666114        2.16533528071756       -0.89062409309931
H           -2.77327080784684        2.15711142680473        0.87362324870819
H           -1.39984434685222       -3.20073101526129        0.88409463200547
H           -1.41453441681904       -3.19226431262827       -0.88481694936360
H           -2.79975908661230       -2.50582042290060        0.01438969531255
H            2.05050496599043       -2.21845171073141       -0.03241108102923
