  72
        -99.35103352
 N         -1.7184236509        2.5286354519        2.5270819698
 C         -1.6602993369        2.0416856243        1.3754214436
 C         -2.8263252186        1.9768506389        0.4238899614
 C         -3.3922130977        0.5734224633        0.3914366681
 C         -4.3679753577        0.2347936397       -0.5039020190
 C         -4.9609011223       -1.0353812254       -0.5377704899
 O         -5.9378008265       -1.4085862755       -1.3672348232
 C         -6.5183484588       -0.4713958515       -2.2468710537
 C         -4.5197226672       -2.0501267480        0.3865922648
 O         -5.1546920510       -3.2325224044        0.2484305393
 C         -4.8421568293       -4.2772943477        1.1409821895
 C         -3.5510050713       -1.7593529147        1.2895857287
 C         -2.9089743611       -0.4224221763        1.3849182163
 C         -2.2842246474        2.3727905051       -0.9773858107
 C         -1.4424203236        1.2964476602       -1.6882148662
 C         -0.0777077183        1.1296167104       -1.1204105398
 N          0.4805278241       -0.0195825685       -0.7581798890
 C          1.8790534423        0.0404750360       -0.3391107485
 C          2.8204572408       -0.2321717448       -1.5215464484
 C          4.2488125441       -0.1550083489       -1.0585360088
 C          4.9616755547        1.0289373427       -1.1500718641
 C          6.2659579637        1.1093476456       -0.6870572291
 C          6.8830024597        0.0053413413       -0.1163216505
 O          8.1391378413       -0.0291944474        0.3659964808
 C          8.9385131939        1.1285881682        0.2844309414
 C          6.1583432018       -1.2147537768       -0.0165928131
 O          6.8297390101       -2.2386972639        0.5473605424
 C          6.2009092064       -3.4928770995        0.6622378994
 C          4.8557735351       -1.2704025823       -0.4865581440
 C         -0.0809734448       -1.2211317588       -0.7497312728
 C         -3.9839299267        2.9515303946        0.8236248572
 C         -4.6656254287        2.5220641085        2.1209336718
 C         -3.5250603586        4.4019869524        0.9394215862
 H         -4.7106200746        0.9722930344       -1.2123384490
 H         -6.9266475676        0.3854438530       -1.7039231263
 H         -7.3276965564       -1.0014879957       -2.7446472173
 H         -5.8001109454       -0.1249059559       -2.9958963485
 H         -5.0378273225       -3.9879267644        2.1775795119
 H         -5.4961263987       -5.1018720823        0.8653807054
 H         -3.7985990619       -4.5907313780        1.0393113683
 H         -3.2094968442       -2.4967462999        1.9969236604
 H         -3.0547877295       -0.0185977253        2.3977059750
 H         -3.1299682704        2.6154256335       -1.6203053611
 H         -1.6816925302        3.2757580929       -0.8737576129
 H         -1.9866569042        0.3540627419       -1.6948968465
 H         -1.3357059041        1.6239257289       -2.7296235189
 H         -0.7368384633        1.6323992782        0.9319660231
 H          0.5552243570        2.0013605767       -1.0975882873
 H          2.0507363212       -0.7024069989        0.4421266837
 H          2.0948077478        1.0282717263        0.0730872507
 H          2.6397526058        0.5084198941       -2.3022208244
 H          2.6059835003       -1.2213125839       -1.9296535828
 H          4.5069542801        1.9006195700       -1.5954655782
 H          6.7969811715        2.0424850598       -0.7784145386
 H          8.5071705955        1.9544840217        0.8584012237
 H          9.0848805248        1.4415791553       -0.7536765572
 H          9.8981718250        0.8517745864        0.7167174964
 H          6.9342055588       -4.1461435041        1.1308121492
 H          5.3095267497       -3.4385041925        1.2953935835
 H          5.9303926746       -3.8970884870       -0.3181179839
 H          4.2994860030       -2.1925780971       -0.4242350174
 H         -1.0785633771       -1.3745855920       -1.1051565519
 H         -1.8190638500       -0.5438380827        1.2934075803
 H          0.5046857481       -2.0652702350       -0.4468302725
 H         -4.7259134081        2.8955732491        0.0194051630
 H         -3.9546469335        2.5485400486        2.9406455747
 H         -5.0827074761        1.5210213599        2.0366668578
 H         -5.4774434683        3.2085987606        2.3472618946
 H         -2.7816069706        4.5034630649        1.7240470676
 H         -3.1135487157        4.7729564863        0.0047918571
 H         -4.3774169140        5.0248373655        1.1980233750
 H         -0.8608255127        2.5415178050        3.0703930537
