25
 energy: -42.143041525623 gnorm: 0.009615712131 xtb: 6.6.1 (8d0f1dd)
C            2.67618739601130        0.81193919566815        0.06852824577527
N            1.72597822436116       -0.29233184361952       -0.03024667675534
C            2.26845336686056       -1.52574986304073       -0.11415829509083
N            1.50747992660099       -2.63186490645333       -0.09224574523454
C            0.37172448627803       -2.55070779812090        0.65475816465831
C            0.41610314430851        0.03661331996836       -0.11501551677116
C           -0.07341059209285        1.44340561578766       -0.05265674416415
O            0.55774507904147        2.46662967434799       -0.00059011635485
N           -1.44854857984827        1.34801151175919       -0.07631314552225
C           -2.34105197959706        2.48731089664675       -0.02531807502408
C           -1.87159487092586        0.05416690136351       -0.09692620181577
O           -2.97298146508609       -0.39563778767978       -0.06067371022690
N           -0.68563851860461       -0.75935570332115       -0.19823202550175
C           -0.85576556309742       -2.20840428081111       -0.09544496512452
H            2.48437811568592        1.40201297823901        0.96405866494696
H            3.68923364586782        0.42340726175662        0.11010291481628
H            2.57986099026944        1.47760618268177       -0.78864983954962
H            3.34198252028851       -1.60174591638992       -0.19514459120171
H           -1.73668448983908        3.37473175601678        0.15282733086690
H           -2.87343714103412        2.58583631235048       -0.97110349760342
H           -3.06358071255607        2.35262635608715        0.77828155144939
H            0.48283225008105       -2.02977598934397        1.60934016735766
H           -0.89679523819318       -2.66673343961030       -1.08329680417796
H           -1.80167058226189       -2.38444091152113        0.42328932776125
H            1.67963210158149       -3.39931098116305       -0.73399879961343
