72
 energy: -99.634123505422 xtb: 6.6.1 (8d0f1dd)
N           -2.00532560941492        2.96058745518469        2.59358890590862
C           -1.89193696922607        2.17564779453395        1.62050109891031
C           -2.85658807583551        2.01257532887158        0.48518817393448
C           -3.54137575523203        0.66341472347170        0.55950481588016
C           -4.33518631824391        0.21275698785085       -0.49434240371978
C           -4.96059470862854       -1.01688237304572       -0.46074991421813
O           -5.74471675938158       -1.53024486629414       -1.44592804794478
C           -6.06139045776724       -0.71501263727669       -2.54318104995371
C           -4.78656456118822       -1.85207630603695        0.66139362614499
O           -5.43406986032098       -3.05058626848540        0.59757568572810
C           -5.31351243745535       -3.92805847610655        1.68506284620339
C           -4.00556073703385       -1.40236379500786        1.70794190864715
C           -3.39829897939073       -0.15463999009902        1.65812169350855
C           -1.95289771590283        2.04152265555366       -0.80407783624934
C           -1.12882152408487        0.78052906722935       -0.95022042945452
C            0.13414543635851        0.70107581329593       -0.48841589263802
N            0.80998054765357       -0.48496024814712       -0.33249641059360
C            2.22231614818959       -0.36971754784212       -0.03691838782248
C            3.10551442283300       -0.41394963150459       -1.29002570370757
C            4.54915707988117       -0.31157641179826       -0.90089541157507
C            5.22633536502846        0.88822015294013       -0.97935186205527
C            6.54870169924886        0.97811781552063       -0.57389109381546
C            7.20864528484589       -0.12712034802367       -0.06873797747002
O            8.50700783765697       -0.14864942585398        0.35490318242883
C            9.26346156980665        1.02675072096886        0.22298884127852
C            6.51369577695036       -1.35330237566450        0.04109095596239
O            7.23917941746042       -2.38350722778123        0.56082709138230
C            6.61395770995445       -3.63489019745902        0.68225153548194
C            5.19495824054129       -1.42981865030209       -0.36953105494419
C            0.39194040864898       -1.53063374466770       -1.22050954514142
C           -3.94984167720148        3.12025759974813        0.44615823386763
C           -4.82517295199902        3.02392347199651        1.70081644916542
C           -3.36614200040637        4.52708016011039        0.34088970133504
H           -4.43450767747027        0.83056950522466       -1.36933599300638
H           -6.54295441376938        0.21740798817897       -2.23129850340151
H           -6.75700100937747       -1.29254739871614       -3.15040926047557
H           -5.16759528939459       -0.48486706413515       -3.13121840742122
H           -5.72085594413709       -3.48119417503390        2.59828290743590
H           -5.89396727981825       -4.81040662727939        1.42094623149712
H           -4.27819291038875       -4.22395978590651        1.86448243836697
H           -3.85991909881465       -2.01313623080429        2.58316373170514
H           -2.80496726093287        0.17818550920284        2.49333090173278
H           -2.62784132996624        2.21429851015912       -1.63906052863077
H           -1.33090225115256        2.93341112275397       -0.73684545646635
H           -1.72149617841284       -0.09985442473399       -1.08841836665770
H           -0.04148675724330        0.19206738742199       -3.37046940653129
H           -1.06056164853043        1.46833023482842        1.54169847290202
H            0.73063799967722        1.59576289828634       -0.32887306025818
H            2.51888040863582       -1.17456181472132        0.64250461706459
H            2.39483973943534        0.57657586212350        0.48134720078566
H            2.82615775155502        0.40344279667908       -1.95145584090930
H            2.92235980687719       -1.35677297008611       -1.80828992063862
H            4.72502825899873        1.76391301141048       -1.36195293777814
H            7.04898086080433        1.92629198409041       -0.66318666832088
H            8.85431489979774        1.84393682179520        0.82601121281169
H            9.33013700331596        1.34815272027502       -0.82195810313382
H           10.25731182981453        0.77978557444105        0.59066327016943
H            7.37133964354102       -4.30413837534848        1.08643522124083
H            5.75625334907877       -3.59728286743173        1.36375311413113
H            6.28094886311386       -4.01610646347469       -0.28757917988651
H            4.64582018179769       -2.35618884338943       -0.28832868834924
H            0.30605719156603       -0.87458094685845       -2.55740631854232
H           -0.64313362254671       -1.78876832044029       -0.91939007406302
H            1.00471580927724       -2.42530738414881       -1.01366265577303
H           -4.57750999421102        2.94305631371133       -0.43647924281273
H           -4.21678734700312        3.22270695740333        2.57689280903632
H           -5.26148929352779        2.03187183373091        1.79732414758569
H           -5.62971841877489        3.75767477687959        1.65555034905297
H           -2.71461062132841        4.72262900466811        1.18457280314457
H           -2.79960275927985        4.65358012537909       -0.58048846453569
H           -4.16827366358705        5.26107120461941        0.36162337510121
H           -1.25473580705328        2.94871244293372        3.27918737836959
