  25
        -42.05615314
 C          2.5072603369        1.1240667452        0.5756214111
 N          1.6324682184        0.0671728247        0.0919597704
 C          2.2280812197       -1.0588438801       -0.2585533452
 N          1.6316233318       -2.2456642678       -0.5739293432
 C          0.4431248631       -2.7050987286       -0.1738462996
 C          0.2836886061        0.3476955668        0.0069286193
 C         -0.1925124976        1.7693188941       -0.0550775217
 O          0.5395945028        2.7131411727       -0.3689720953
 N         -1.4665702486        1.9047705785        0.2582598348
 C         -2.2699486742        3.0261430081        0.1299652672
 C         -0.7941996092       -0.5760216821       -0.1267792626
 O         -1.9304260297       -0.2639631107       -0.4012537593
 N         -0.5794469136       -2.0071932206        0.1802253606
 C         -1.7718099144       -2.6686832558        0.6752303105
 H          2.3503430174        1.2671656248        1.6465920503
 H          3.5494845300        0.8784077977        0.3910837859
 H          2.2581790445        2.0646017960        0.0730340486
 H          3.3090146448       -1.0695304848       -0.2439322415
 H         -1.7081450843        3.9042019021       -0.2183731203
 H         -3.0687731496        2.8102017740       -0.5896138304
 H         -2.7450409801        3.2346301632        1.0944510491
 H         -1.5664166285       -3.7275549025        0.7980220092
 H         -2.5903865238       -2.5204251752       -0.0311698930
 H         -2.0628530936       -2.2264047635        1.6280197593
 H          2.2571352378       -2.9606975248       -0.9347525686
