25
 energy: 29.833384997647 xtb: 6.6.1 (8d0f1dd)
C            3.88444780257208        2.97740254626154        0.19756384214709
N            2.26167501574578       -0.61465760745967       -0.02606908297170
C            2.33092856965748       -1.90293145613565       -0.02814177068924
N            1.08939720276039       -2.50235966136405       -0.04199551683912
C            0.19159177157475       -1.48299628822387       -0.04815943565458
C            0.92931487351777       -0.30882606686651       -0.03794777767558
C            0.27709479501231        0.97634814931529       -0.03697153930795
O            0.79377459730609        2.06782696336890       -0.03156526982614
N           -1.12518619679299        0.84043809484880       -0.04347316645134
C           -1.91596196982222        2.06424385836798       -0.03891839954540
C           -1.86484314352638       -0.32041212947093       -0.05119674273537
O           -3.07523980769131       -0.31080026751287       -0.05307424343948
N           -1.16387340940885       -1.52626470560796       -0.05902358145697
C           -1.89534888855090       -2.77448069558292       -0.07120442279738
H            4.23250914591951        3.22618032883210        1.17709860604458
H            4.56681660696421        2.99511088413665       -0.62481041577287
H            2.86645546109515        2.68933409844332        0.04821003319260
H            3.24110785934390       -2.46642129471578       -0.01995311690462
H           -1.23058238409672        2.90718851221741       -0.09270059329208
H           -2.59288169634282        2.06770256708989       -0.89245243310581
H           -2.50948551949652        2.11920980096323        0.87345380951495
H           -1.65777848707741       -3.36726061713519        0.81412868601071
H           -1.66440928965016       -3.34630388836867       -0.97205964047396
H           -2.95629393218502       -2.52737626829324       -0.06453821669496
H            0.89898532814444       -3.49086606836369       -0.04916569908088
