25
 energy: 39.554363203822 xtb: 6.6.1 (8d0f1dd)
C            3.32518510333009        1.80477079893484        0.19863688098276
N            2.38768432020733       -0.15107428220054       -0.05428566265092
C            2.58116168846143       -1.45096397869074        0.09771395860981
N            1.38870257544318       -2.14583156749265        0.06008325267897
C            0.39807012776413       -1.22801627604927       -0.02442404461135
C            1.01909184051310        0.02094494894111       -0.04667317652086
C            0.21630810747900        1.20646571964882       -0.10239447985741
O            0.58669019391161        2.35873223713120       -0.22044989749009
N           -1.17296514690373        0.94180041300771       -0.04740503820184
C           -2.04532615784018        2.10559276546962       -0.01779204285043
C           -1.78232899935495       -0.27460108552735       -0.04730651318139
O           -2.98942673047460       -0.38541823359878       -0.03881458311421
N           -0.95375928610235       -1.40802160825680       -0.05537807142881
C           -1.63338611531762       -2.68148961633419       -0.06419823245661
H            3.67841856694497        1.95861233495969        1.17125214849335
H            3.99981639440701        1.75869134697359       -0.62103817797689
H            2.38670414206273        2.27051972255158       -0.00155629348506
H            3.51571017327862       -1.98160925113339        0.01492038124403
H           -1.38081349406608        2.96280856469005       -0.10416782495518
H           -2.78670698482979        2.03490068946881       -0.79125128538528
H           -2.52599530657534        2.16009672755539        0.94581003449985
H           -1.38881891331409       -3.26362530912859        0.82519190279336
H           -1.38869127038330       -3.24775649248268       -0.96377628649740
H           -2.69963689352488       -2.44818634939688       -0.06332722969931
H            1.29408054677040       -3.14743950579815        0.04000204222874
