25
 energy: 37.891507907943 xtb: 6.6.1 (8d0f1dd)
C            3.41045533723184        1.96241505876305        0.24664851422513
N            2.36585033148276       -0.21914045720050       -0.06593172845788
C            2.54467703204742       -1.50481553314513        0.04570432483569
N            1.35182309867078       -2.19989369619354        0.05400203803485
C            0.37214332788039       -1.26810729156191       -0.03559071615457
C            1.00710743301943       -0.02733006140729       -0.07788154068976
C            0.21928597765454        1.17241452318367       -0.15429537093525
O            0.61196713088405        2.30862046606974       -0.30001390426330
N           -1.16133204207551        0.92351917369216       -0.05608467884036
C           -2.01523049212275        2.10130176811012       -0.00713091021872
C           -1.78741527842202       -0.28922296663221       -0.04576289778839
O           -2.99680582292184       -0.38132701592857       -0.01680340514298
N           -0.97928685764893       -1.42983638109734       -0.06825747861179
C           -1.67941468383120       -2.69273998116768       -0.06793540323480
H            3.78544221115804        2.11359214627958        1.21236729143664
H            4.02324692630700        1.92480677986995       -0.60577291092583
H            2.43862993723164        2.34378708759224        0.05417776801673
H            3.49858421394954       -2.00438036294404       -0.05487567848843
H           -1.32543370713322        2.93680514100924       -0.14656848322466
H           -2.81794429137197        2.01859290095865       -0.72052789077929
H           -2.43451077163985        2.18865137698731        0.98854329566038
H           -1.44428445633181       -3.27810984019001        0.82187902435142
H           -1.45243154441547       -3.26480722163536       -0.96739228978432
H           -2.73771796420174       -2.42418087561934       -0.06027648827746
H            1.25739999975299       -3.20188383322810        0.07470779175255
