25
 energy: 34.354822735536 xtb: 6.6.1 (8d0f1dd)
C            3.60144573508474        2.25624833741095        0.29547311712123
N            2.31761956464468       -0.33890484053521       -0.04941537282174
C            2.46759690435155       -1.61440133614132       -0.03173444991938
N            1.26938055690060       -2.30289278445910        0.00945995032921
C            0.30747436099460       -1.34530312491474       -0.04840245405422
C            0.97113670145898       -0.12368395501699       -0.08534178725578
C            0.21575035844023        1.09358967889429       -0.16876274570596
O            0.65559652211160        2.21289439616143       -0.27082638486736
N           -1.16221153330441        0.88909281409283       -0.07736844587674
C           -1.97458730460120        2.08995742885434       -0.02535426161248
C           -1.82175383880990       -0.30556574087983       -0.05524201923797
O           -3.03133532753038       -0.36045809688241       -0.01379929048936
N           -1.04597859220436       -1.46605245007357       -0.08415124304893
C           -1.77096910962807       -2.71208789892061       -0.09163660633602
H            3.96919554452428        2.43972545988944        1.26554554651398
H            4.22986281302146        2.23219466989562       -0.53621311206456
H            2.58540924406548        2.45937166760472        0.08725905791538
H            3.41836345731646       -2.10100030686191       -0.06754203072488
H           -1.31023419234342        2.90574567432467       -0.28682382414887
H           -2.81012270104801        1.99599148053790       -0.70316992398155
H           -2.31777112830805        2.23770299764204        0.99419267730408
H           -1.54196029846158       -3.31789407090582        0.79057397806791
H           -1.57284686324559       -3.28492649688409       -0.99568414331141
H           -2.82455607380855       -2.42101095520597       -0.05852277843533
H            1.16607117098347       -3.30610145652545        0.05530749937200
