25
 energy: 3.280167172586 xtb: 6.6.1 (8d0f1dd)
C            3.19199671163384        1.36624025497273        0.11251527385532
N            2.40900546621930        0.07664372624865        0.05072680884657
C            2.65379559352137       -1.32693029666560        0.05274401025965
N            1.44247325834649       -2.02073079144401       -0.00618805577553
C            0.42963957459962       -1.13320235264777       -0.02020341269626
C            0.99315236027785        0.14092455830060        0.00488665450932
C            0.17415221560306        1.28460599116085       -0.02692299223232
O            0.55464123793948        2.45446396902238       -0.06728255847871
N           -1.22144928774427        0.98894596377808       -0.03145053645791
C           -2.11963375271970        2.12661879372935       -0.03169637170517
C           -1.80037386493250       -0.23833614453890       -0.04776180829826
O           -3.00458705635104       -0.40275494379289       -0.06205737760513
N           -0.93095628279042       -1.34875079307414       -0.04727992624275
C           -1.54507723620111       -2.65845348624828       -0.06298187976504
H            3.68596217759437        1.55732056569599        1.07387685707919
H            3.98823748946161        1.38660380173672       -0.64998188263552
H            2.49489873389008        2.18001050874650       -0.06135292638516
H            3.58990015849657       -1.82449366874642        0.03156180754467
H           -1.50784398490586        3.02274611949122       -0.04557508232994
H           -2.72465408467533        2.08070809366923       -0.91450444943598
H           -2.71292084298583        2.11820161590314        0.87066060773983
H           -1.27697819036197       -3.22972960540198        0.82807696504605
H           -1.26327747195176       -3.21302301466278       -0.95999835690837
H           -2.62593633054275       -2.50136089160385       -0.07087652159496
H            1.31635823001239       -3.02608533359689       -0.02670914339238
