25
 energy: 32.616150365178 xtb: 6.6.1 (8d0f1dd)
C            3.72800381051376        2.58681557522622        0.31657977225976
N            2.28430904825208       -0.47147901920309       -0.10910638253364
C            2.42180111537270       -1.76041893657345       -0.06626753291853
N            1.19702484790310       -2.40919035000908        0.00436682954778
C            0.26266379181829       -1.42313739943224       -0.03789250428544
C            0.94771936317506       -0.21757091367557       -0.08894675513940
C            0.23675780774417        1.02998673492950       -0.13887428402891
O            0.72865596536134        2.13116877046582       -0.18785338233002
N           -1.14822679534091        0.86868477443411       -0.06949062410573
C           -1.94408300896431        2.08446890556329       -0.03258674157500
C           -1.83872825470032       -0.31413708232916       -0.04973951682297
O           -3.05063475430230       -0.33577705610289       -0.02488954806847
N           -1.09798692736293       -1.49459433955275       -0.06301276753261
C           -1.84144328378060       -2.73199443236629       -0.09590559100955
H            4.08201862645604        2.76808007051992        1.30497069671561
H            4.36328187823601        2.59280758721588       -0.52854450763370
H            2.69699529237251        2.63719875386482        0.09441939676084
H            3.37676286652005       -2.25221595196462       -0.04758672246363
H           -1.26632636815024        2.90172133062789       -0.27862904247223
H           -2.71443381524576        2.02356973429752       -0.78922767479187
H           -2.36100159261609        2.20810620182159        0.96149947281672
H           -1.59122345682566       -3.35810707310101        0.76001777680598
H           -1.64899677205121       -3.27849696473659       -1.02108374740473
H           -2.89564616146827       -2.45230979212148       -0.05025882618098
H            1.06215764400226       -3.41025856453097        0.04825534314291
