25
 energy: 34.106630796030 xtb: 6.6.1 (8d0f1dd)
C            3.64369165612829        2.32968756134931        0.30729839380057
N            2.30826570835943       -0.37670623482718       -0.04330671425787
C            2.45031440435807       -1.65423764998224       -0.03045260410978
N            1.24747398516565       -2.33218001237346        0.00631361065183
C            0.29399826317723       -1.36558812928854       -0.04805223081426
C            0.96558177749345       -0.14898884255281       -0.08164048963019
C            0.21582069884705        1.07476218738950       -0.16752317488802
O            0.66626125149224        2.19222007799485       -0.26356866930671
N           -1.15975337782089        0.88053054282606       -0.07798930164091
C           -1.96905948132136        2.08466043338558       -0.03580612516673
C           -1.82716338917133       -0.31066477812854       -0.05081340697309
O           -3.03727313342001       -0.35364815451311       -0.01582422202277
N           -1.06078830597149       -1.47475315479813       -0.07620290711644
C           -1.79211834762440       -2.71673053112860       -0.09899487690298
H            4.00599351790437        2.53339859361641        1.27270657313095
H            4.26924927693113        2.31902104605596       -0.52739947429255
H            2.61963124224696        2.50140965131417        0.09773787721022
H            3.40292996768253       -2.12936175775741       -0.05174363049721
H           -1.31102722736705        2.89403706615067       -0.32625261841321
H           -2.80553824037555        1.99008605313117       -0.72360357763951
H           -2.28939395561585        2.24800510063125        0.98682409064167
H           -1.55275455104043       -3.33504957775294        0.76993227389829
H           -1.59935196802045       -3.27661209178201       -1.01396768766362
H           -2.84602521366035       -2.42705962329723       -0.05283335520313
H            1.14228010144272       -3.33599185948357        0.05751446262486
