  72
        -99.28479826
 N         -1.5028740373        1.6114169884        2.5239699234
 C         -1.5687703195        2.0545447325        1.3385106194
 C         -2.7533254593        1.9795601120        0.4877758812
 C         -3.8099645648        0.7699609022        0.6918190154
 C         -4.4251680541        0.2281225329       -0.5103673760
 C         -4.6610252095       -1.1068950850       -0.6766243893
 O         -5.2276937800       -1.6720045642       -1.7669080178
 C         -5.6845557908       -0.8412388891       -2.8086234487
 C         -4.3209316433       -2.0329276697        0.3610891015
 O         -4.5989451727       -3.3199369334        0.1032642387
 C         -4.4344881548       -4.2824415336        1.1206244639
 C         -3.7685525418       -1.5334919578        1.5463896850
 C         -3.5281923690       -0.1999215211        1.7255921330
 C         -2.4763559679        2.4043561075       -0.9417356909
 C         -1.6489689021        1.3513154094       -1.7165048879
 C         -0.2583034353        1.2570812359       -1.2253637882
 N          0.2874537708        0.2057163241       -0.6237728912
 C          1.6889167421        0.2240269819       -0.2779579839
 C          2.5697249696       -0.3697777990       -1.3951580579
 C          4.0179175692       -0.2756648074       -1.0034333343
 C          4.7198814128        0.9048281136       -1.1849232993
 C          6.0428356232        1.0135732360       -0.7849758038
 C          6.6918287656       -0.0599994414       -0.1929249004
 O          7.9678384656       -0.0666413762        0.2386809725
 C          8.7450479020        1.1004412066        0.1018139073
 C          5.9828383955       -1.2785775224       -0.0107743336
 O          6.6918581375       -2.2748223260        0.5587987259
 C          6.0869219978       -3.5323794495        0.7408105235
 C          4.6588895749       -1.3612651029       -0.4117924977
 C         -0.4475734364       -1.0154407920       -0.3968312105
 C         -4.1242138539        2.2176514827        1.0574874985
 C         -4.3421668698        2.6380391784        2.4828762092
 C         -2.9178503769        6.0166124519        0.7538416909
 H         -4.7511112559        0.9224619118       -1.2660400528
 H         -6.4508648748       -0.1430328053       -2.4592129339
 H         -6.1225411447       -1.5111747950       -3.5458307207
 H         -4.8628659268       -0.2834299765       -3.2724929937
 H         -5.0538473014       -4.0495565604        1.9930802410
 H         -4.7623449413       -5.2254880027        0.6847185531
 H         -3.3864956799       -4.3684404354        1.4277416128
 H         -3.5443820368       -2.2118490762        2.3535387666
 H         -3.0998638641        0.1496774699        2.6470834128
 H         -3.4064696262        2.5812990982       -1.4782269328
 H         -1.9329419356        3.3522111129       -0.9274594000
 H         -2.1622671148        0.3924226238       -1.6603059635
 H         -1.6192941970        1.6693172615       -2.7640831845
 H         -0.7237299877        2.5545774128        0.8439420851
 H          0.3839968266        2.1111791003       -1.3734734904
 H          1.8366383238       -0.3443064784        0.6431150607
 H          2.0026684334        1.2540807468       -0.0951556281
 H          2.3935596676        0.1922369499       -2.3141883086
 H          2.2903309041       -1.4096746515       -1.5676880118
 H          4.2414268837        1.7521539337       -1.6524390428
 H          6.5638520639        1.9433634343       -0.9441674853
 H          8.3092424324        1.9391230704        0.6535250583
 H          8.8691713460        1.3786937706       -0.9490952022
 H          9.7165164478        0.8553474863        0.5268858963
 H          6.8546949014       -4.1645567727        1.1826017315
 H          5.2324696291       -3.4725526364        1.4227735412
 H          5.7661268681       -3.9650706338       -0.2119825589
 H          4.1124243775       -2.2817484291       -0.2783955770
 H         -0.7763634899       -1.4617255616       -1.3384845011
 H         -1.3245845072       -0.8250571797        0.2272871690
 H          0.1921079989       -1.7288502804        0.1158758499
 H         -4.8114688871        2.6959916066        0.3672364284
 H         -3.5266568220        2.3120671566        3.1192676661
 H         -5.2736366401        2.2202995314        2.8584097709
 H         -4.4107458927        3.7226863215        2.5289937383
 H         -2.3632142754        5.3424983404        1.3698651774
 H         -2.5436409266        6.3039916001       -0.2058537429
 H         -3.8047710396        6.4736093992        1.1329003640
 H         -0.6234838910        1.7663378493        3.0064373842
