72
 energy: 16.154404229359 xtb: 6.6.1 (8d0f1dd)
N           -1.55761197709751        2.90469947470314        2.25158227456987
C           -1.57914088136120        2.20742812915201        1.20655775252206
C           -2.75752651871082        2.08176968841458        0.27042873803300
C           -3.29816681299237        0.62522395314630        0.36409436816818
C           -4.23228282135253        0.11028885434242       -0.53829025752496
C           -4.74856469418028       -1.20062065217129       -0.49925082782983
O           -5.69571863692879       -1.56337795529977       -1.42012171068724
C           -6.21602097988055       -0.62739637598685       -2.34931511098989
C           -4.29551611904715       -2.18094735591783        0.48099747206650
O           -4.56661355212067       -3.66008621600738        0.47861624813818
C           -4.72186000523171       -4.47999656395369        1.62268638007728
C           -3.39336493847348       -1.60633743756222        1.39025178692460
C           -2.92501290238224       -0.28030732643839        1.34934095133661
C           -2.18175218163196        2.36767726651518       -1.15190427089674
C           -1.24737388723016        1.27216059449221       -1.70086180064886
C            0.02893942740683        1.21969937909906       -0.93988299839349
N            0.62978396302410        0.02387040752827       -0.59330007765151
C            2.00166261883280       -0.00604442949750       -0.18832072492359
C            2.94335407731857       -0.49816093922136       -1.31435671641745
C            4.36783171312549       -0.42168663635962       -0.86668971402283
C            5.09769455171902        0.73967784941309       -1.03920217844048
C            6.40592567686092        0.83121706716719       -0.58713124751494
C            7.00442206396595       -0.24295594485772        0.05021521351285
O            8.28417366969445       -0.27272179130496        0.52638910785741
C            9.08680723960258        0.86388558171908        0.34789628653738
C            6.26403400336954       -1.43136408030388        0.24042467414571
O            6.93277466291232       -2.43666647601757        0.87527335467598
C            6.27477181754412       -3.65905412520135        1.07499086177773
C            4.96039300582958       -1.49978500317948       -0.21048039054359
C           -0.07395600139884       -1.23084325717589       -0.69030970162044
C           -3.89488899313940        3.11184398911605        0.56170722735103
C           -4.53416714215314        2.82651982260541        1.91903334104117
C           -3.44451910415488        4.57866723140365        0.52106039841634
H           -4.57240811712878        0.78828871435658       -1.31233095390948
H           -6.67572680516911        0.25196491327813       -1.87898031835967
H           -6.99324177301005       -1.16684073766087       -2.89345777830421
H           -5.45975349095620       -0.28431495607341       -3.06574827376841
H           -4.77191489307256       -3.89340486793630        2.51366294551328
H           -5.59559308841401       -5.13703061905048        1.57874709390383
H           -3.80479313604458       -5.06694515522559        1.66207398256762
H           -3.00182719892687       -2.19633664214586        2.19979472377368
H           -2.22502000621713        0.06174276844881        2.09835886660490
H           -3.00991756808490        2.49013639525390       -1.85571528298909
H           -1.61939410710964        3.30975894993742       -1.11679497915836
H           -1.76748386007312        0.32205906616233       -1.67462270836054
H           -1.05833825772477        1.50862036340170       -2.76401359586561
H           -0.70148984343123        1.68137257963697        0.77315936805257
H            0.71105778829107        2.04894605923166       -1.02978708553508
H            2.12627002032494       -0.66567607530629        0.68366533828607
H            2.30501610287472        1.00240619742469        0.11034179918469
H            2.77958121930423        0.13755293336634       -2.18620000913731
H            2.67616698194211       -1.52405378706528       -1.57437615559552
H            4.64938379559318        1.58787980685740       -1.53503222451969
H            6.94725173665780        1.75000223187762       -0.75076457091760
H            8.67099989099425        1.73799818021461        0.86141265792119
H            9.22305300286466        1.10054541439777       -0.71328605565302
H           10.05041767054401        0.60755676758391        0.78858173806117
H            7.00253434798387       -4.30204367858394        1.56895489472825
H            5.39676281104828       -3.54787014624770        1.72117524521297
H            5.97244208084187       -4.11330448235433        0.12551462157464
H            4.38066354824759       -2.39854412239882       -0.06917304263525
H           -0.24839161354930       -1.51918676576583       -1.73705382652631
H           -1.04202591721700       -1.17048964413413       -0.18362554938205
H            0.50560086762182       -2.01433925554254       -0.20224152384591
H           -4.65407495862008        2.98787507554356       -0.22365512019903
H           -3.80131990122130        2.98973928863214        2.70133377702082
H           -4.88851830480176        1.80223875803164        1.96701191691346
H           -5.38144139019442        3.49519899185164        2.07754454913934
H           -2.66191544342659        4.75287901537241        1.25318758339353
H           -3.08517378045769        4.87586289746833       -0.46240105677665
H           -4.29094578006230        5.22440443130594        0.76280928631495
H           -0.67653698279233        2.93058271407349        2.75432604483849
