72
 energy: 25.221699576754 xtb: 6.6.1 (8d0f1dd)
N           -1.59925004119725        3.11978452167309        2.28313590866942
C           -1.55860861682036        2.43098998348888        1.23425752436387
C           -2.69723905622523        2.27405564317640        0.26165248640192
C           -3.23364465087213        0.83507685684099        0.31721121477766
C           -4.15969522208181        0.35954620274498       -0.60866707489296
C           -4.68811733755145       -0.93905303468291       -0.54556490436251
O           -5.60004188180664       -1.39274472483994       -1.45492534608736
C           -6.08452026708574       -0.52877251799782       -2.46123836910030
C           -4.26982921376138       -1.82187564784190        0.46746846949212
O           -4.78973689075571       -5.64185063904175        1.16757390365180
C           -5.07455443903181       -6.08957962006190        2.24979377336296
C           -3.34427050422570       -1.33737643311622        1.37202321903519
C           -2.83891022369937       -0.04659505529177        1.31003786819021
C           -2.09650344455014        2.57491149303115       -1.13714937933171
C           -1.21826891150492        1.45199820156471       -1.70879003335336
C            0.05361405169525        1.30374488533727       -0.95553938142425
N            0.62954162836131        0.09037283654904       -0.68825965741985
C            1.98014167893864        0.03173793960420       -0.21888265979190
C            2.93420972281010       -0.45298553663867       -1.32970267892754
C            4.35742549965868       -0.39424782794214       -0.86835556676394
C            5.10147756528796        0.76035147378421       -1.01807820833997
C            6.41302255520074        0.82242778520751       -0.57000148374930
C            6.99696084234635       -0.26971443863848        0.04370460747577
O            8.27199148284077       -0.32213683476593        0.51946966249079
C            9.09256077144993        0.80701324860407        0.36924137463926
C            6.24188194884559       -1.45261781425671        0.21035934823203
O            6.89911218862035       -2.47807454283567        0.81902098392008
C            6.23138432873586       -3.70249352132957        0.98962714932073
C            4.93634564863706       -1.49604585594187       -0.24153463339067
C           -0.11494695221167       -1.13390566413203       -0.76753628678016
C           -3.88255065597088        3.24257170102821        0.54311558730173
C           -4.55652759102460        2.92582572825712        1.87734252568723
C           -3.48773105503067        4.71697810874262        0.50020598779182
H           -4.45831725008338        1.04038020313151       -1.39225933004858
H           -6.58169851191608        0.36388040333924       -2.05827233614153
H           -6.81384595429553       -1.12292343428124       -3.01034933742154
H           -5.30707592168717       -0.20970435787134       -3.16600377133476
H           -4.62956363315935       -2.87795693297883        0.61963266787150
H           -6.11832522358768       -6.09535504119226        2.64636655298860
H           -4.32528888521727       -6.66290488786620        2.85478124736336
H           -2.98823971343809       -1.97673658193760        2.16263769408764
H           -2.13907540352587        0.28694479606552        2.05574498003875
H           -2.92350622760665        2.76635751586970       -1.81423649818758
H           -1.49867749205177        3.48869298764954       -1.09524962138437
H           -1.78417497957050        0.52271279916634       -1.70356650895763
H           -1.00994818701088        1.70302598988917       -2.75820421440862
H           -0.65654123036686        1.89774158129295        0.88259610199626
H            0.74135207582575        2.13157001884603       -0.98376979805403
H            2.04928378553192       -0.63948880862860        0.64400459666834
H            2.29817285453233        1.02571676311024        0.10329786746520
H            2.79422544280185        0.19110557892419       -2.19889459927788
H            2.65948594797488       -1.46999755726271       -1.60929034646688
H            4.66899378616692        1.62358374687789       -1.50086299768112
H            6.97207989675817        1.73311492496645       -0.70967298734305
H            8.68946318971595        1.67514693048100        0.90075879627768
H            9.24246218414432        1.06229990389959       -0.68475083113052
H           10.04897973416931        0.53060811536061        0.80953553489521
H            6.95476994912349       -4.36207303783245        1.46596785059482
H            5.35467754444212       -3.60113677179363        1.63843236659422
H            5.92550708054239       -4.13739666075614        0.03219830069046
H            4.34813939726761       -2.39337833743127       -0.12701696220005
H           -0.29464448859718       -1.42965824590710       -1.80389791607541
H           -1.07840644005096       -1.04808898493315       -0.25830903594930
H            0.45716770021608       -1.92330029665373       -0.28995299265748
H           -4.61890883282965        3.07476736635043       -0.25079348347309
H           -3.86550970788218        3.11905981042116        2.69037046688759
H           -4.87276669104651        1.88741729526944        1.91597802842788
H           -5.43000478006020        3.55721172438870        2.00839399662170
H           -2.72653892944812        4.91952313846812        1.24171426185475
H           -3.11781566692021        5.00736911399610       -0.47966656229350
H           -4.35425153675261        5.33391549314338        0.72813062069893
H           -0.74413332304557        3.14840385581348        2.83697401210544
