72
 energy: 6.205343662859 xtb: 6.6.1 (8d0f1dd)
N           -1.54076925769382        2.87132695786051        2.24848367098087
C           -1.57150809031861        2.19161390020907        1.19282075108856
C           -2.75453404042404        2.07714030967465        0.26394392468754
C           -3.30620256277733        0.63583181462988        0.35472731631706
C           -4.25295694670308        0.14519703543836       -0.54660633583025
C           -4.77299403582427       -1.15649108368152       -0.50946955612079
O           -5.72821807657600       -1.54511835668209       -1.40913369665982
C           -6.26134965983516       -0.62075646781181       -2.33669985365459
C           -4.31376097738515       -2.12828509157759        0.45621342339066
O           -4.66050763415666       -3.54152513278809        0.40500001544173
C           -4.69502107233741       -4.38084747911364        1.54384269414792
C           -3.40018927545876       -1.59055761879044        1.37096652569538
C           -2.92349296625099       -0.27021095686765        1.33190699265890
C           -2.18456619248706        2.35118531094191       -1.16025243142435
C           -1.25101333248493        1.24767458389743       -1.69268134801897
C            0.02250881972338        1.19493461515951       -0.92639163904153
N            0.63312430888625        0.00337191395877       -0.58476431529586
C            2.00342334270589       -0.01615446816045       -0.18117751993869
C            2.94330121157506       -0.51026820398043       -1.30567401636319
C            4.36685482421417       -0.42504514282317       -0.85972791916832
C            5.09269819204444        0.73736940688098       -1.04044076989254
C            6.40135256780675        0.83422997688392       -0.59092205340283
C            7.00320473113974       -0.23414908530273        0.05225487910391
O            8.28329367404539       -0.25689399747471        0.52732699550909
C            9.08298045459137        0.88040509327271        0.34101274501800
C            6.26671491990104       -1.42354907182898        0.25017262488686
O            6.93956218144466       -2.42377476630142        0.88912014245782
C            6.28566029758744       -3.64774344526921        1.09422549253553
C            4.96288940363754       -1.49823993977994       -0.19864791262147
C           -0.06798903693830       -1.25059176282252       -0.67374115538393
C           -3.88880871177579        3.10405242577675        0.56686917058973
C           -4.52430426382540        2.81439670642787        1.92515000450054
C           -3.43261473987608        4.56703881369931        0.52869781355506
H           -4.59186113854066        0.82894975919166       -1.31378739257069
H           -6.71963367851468        0.25582779535752       -1.86105812624145
H           -7.03880653995506       -1.16871591064342       -2.87059882318502
H           -5.51141603186423       -0.27716390415064       -3.05922846380203
H           -4.75964977450595       -3.77370094765063        2.42288282271584
H           -5.51972913484546       -5.09462430838474        1.48985228843486
H           -3.74218608190145       -4.90855431779981        1.57812696544302
H           -3.01519922481180       -2.20012504279890        2.17036413917564
H           -2.20619591559360        0.05961132319982        2.07045922180645
H           -3.01356825686715        2.46380496935868       -1.86351135407475
H           -1.62630513693725        3.29438635286937       -1.13823234676945
H           -1.77578953917817        0.29868422791859       -1.66109903510442
H           -1.04881696315922        1.47370594209339       -2.75463917274018
H           -0.69689465929196        1.67276493681062        0.73922051034486
H            0.69366427716612        2.03354633580963       -1.00753223526853
H            2.12857258474833       -0.66779481011118        0.69582244304683
H            2.30142535540261        0.99552883391486        0.10995631021236
H            2.77506095373734        0.12041800825805       -2.18037925761048
H            2.67833516325651       -1.53786705996839       -1.55966163481831
H            4.64194743982502        1.58128998676374       -1.54138469967991
H            6.94149218935063        1.75234763613986       -0.76065365565975
H            8.66571972578481        1.75615082483652        0.85029203444200
H            9.21740033135689        1.11082566322044       -0.72160952274921
H           10.04773054269516        0.62917568947636        0.78175454086984
H            7.01591280311945       -4.28614276659022        1.59022026712638
H            5.40749809833876       -3.53703662450523        1.74030879342649
H            5.98432642347967       -4.10765907703888        0.14712069939499
H            4.38630151853268       -2.39836524362844       -0.05309644432431
H           -0.24355902587761       -1.54704665994583       -1.71742290008267
H           -1.03510975695105       -1.18809987697977       -0.16539896826783
H            0.51743671962829       -2.02716213821923       -0.18281205121451
H           -4.65381798833255        2.98169451402377       -0.21198534047526
H           -3.78879664063151        2.96863483039066        2.70676237481842
H           -4.88431648584567        1.79138098075444        1.96951436946050
H           -5.36680984577807        3.48640227494811        2.09071511655203
H           -2.64715295906035        4.73569433335634        1.25856688222780
H           -3.07396515969113        4.86198022891540       -0.45540706947333
H           -4.27393299789574        5.21599899568688        0.77571372248233
H           -0.65798130140211        2.88926501219468        2.75034896057519
