72
 energy: -0.265509462511 xtb: 6.6.1 (8d0f1dd)
N           -1.52412859730186        2.83766443645441        2.24467420727288
C           -1.56368787687089        2.17804240240144        1.17723819581024
C           -2.75132105895202        2.07334097090543        0.25690864977252
C           -3.31156743125243        0.64665931297312        0.34584681246505
C           -4.27133381686662        0.18152719216093       -0.55499298957887
C           -4.79761570411348       -1.10996792120203       -0.51726501317533
O           -5.75857422485533       -1.52610127975415       -1.39552327467009
C           -6.30612381385285       -0.61615375646050       -2.32332536406655
C           -4.33925149941712       -2.06824270713034        0.44483861278958
O           -4.76780262475061       -3.41830850348898        0.36727105570975
C           -4.67712991338928       -4.29189622985420        1.46989731411209
C           -3.40895682400676       -1.57196491839576        1.35845367187203
C           -2.91562269522855       -0.26106708314410        1.31358017760567
C           -2.18746983866679        2.33490063222767       -1.16912476705370
C           -1.25428544522582        1.22368800803890       -1.68377029056388
C            0.01731519951027        1.17016380370711       -0.91438204741482
N            0.63640916051327       -0.01647713357978       -0.57552437547371
C            2.00487684581061       -0.02546920479957       -0.17380990417048
C            2.94225414554465       -0.52124303660167       -1.29708738057775
C            4.36508542753393       -0.42789349975575       -0.85235576399199
C            5.08736509711941        0.73536150099488       -1.04089227198895
C            6.39672542603800        0.83705134354348       -0.59484073333098
C            7.00160321967001       -0.22565595370734        0.05395969265018
O            8.28155993271891       -0.24157637988533        0.52766229307558
C            9.07866123180028        0.89658978451084        0.33396718420900
C            6.26837370280237       -1.41580734581965        0.25991415088267
O            6.94477964968642       -2.41058936642122        0.90282310170865
C            6.29597486420389       -3.63668076464446        1.11341398450186
C            4.96416002953995       -1.49659274376725       -0.18665027291023
C           -0.06236143373573       -1.26924226026550       -0.65639681677277
C           -3.88239557302005        3.09588731730954        0.57221565945427
C           -4.51455151934433        2.80128165866466        1.93108071273260
C           -3.42012158271799        4.55483302705273        0.53568027790457
H           -4.61135383028545        0.87085218327739       -1.31480733849939
H           -6.76245469198941        0.25807338963647       -1.84272925459445
H           -7.08396319258615       -1.17361035074616       -2.84539922133657
H           -5.56324212855099       -0.27410324812607       -3.05328450676049
H           -4.78556750936877       -3.71734435029318        2.35701864105780
H           -5.44586112262464       -5.05846925498609        1.39448340247570
H           -3.68732256846100       -4.74572636468709        1.49342018655573
H           -3.03087879250154       -2.20426940355895        2.14429895544032
H           -2.18567597758171        0.05399530471048        2.04571464987827
H           -3.01720253292663        2.43744573865121       -1.87180882851322
H           -1.63372966290271        3.27912800374886       -1.16055148011350
H           -1.78441103150224        0.27600417838962       -1.64842418482325
H           -1.03599796749461        1.44090701581881       -2.74228253365159
H           -0.69234264515837        1.66504667357785        0.70527402372846
H            0.67755212591201        2.01805564034211       -0.98461492587902
H            2.12908971645526       -0.66912750077505        0.70739430036822
H            2.29716568784261        0.98952824373221        0.10905017119243
H            2.77167340073445        0.10318129626830       -2.17590064594321
H            2.67954771890040       -1.55075492633394       -1.54460461802820
H            4.63497270102706        1.57478652629668       -1.54791676956595
H            6.93591295277432        1.75433540999087       -0.77057180674726
H            8.66064607887876        1.77422349099079        0.83919660855682
H            9.21188607049496        1.12105229024311       -0.72996348847924
H           10.04432913066723        0.65043753944278        0.77490991489861
H            7.02908389765076       -4.26999690035988        1.61136905590994
H            5.41781242836409       -3.52691619760155        1.75958753512703
H            5.99616827807419       -4.10276149333010        0.16873958470032
H            4.39130864884892       -2.39848650215311       -0.03724146488659
H           -0.23730479888083       -1.57343474402783       -1.69697482835227
H           -1.02906479514173       -1.20565100041023       -0.14727816548716
H            0.53034165361103       -2.03716548786306       -0.16259303992488
H           -4.65166490974685        2.97376616812351       -0.20147502308922
H           -3.77795003851564        2.94640963507205        2.71356925345209
H           -4.88089071117963        1.77972138398138        1.97195605704555
H           -5.35204108371650        3.47661830287518        2.10249829469264
H           -2.63186998730834        4.71915160214596        1.26355379190757
H           -3.06277882164948        4.84725977935033       -0.44930074380291
H           -4.25738143794371        5.20552652376748        0.78696994498199
H           -0.63860666228939        2.84796844610709        2.74382773421319
