72
 energy: 84.262041630617 xtb: 6.6.1 (8d0f1dd)
N           -1.65901561377643        3.14654397162056        2.24444007661301
C           -1.60846103530995        2.35499978783037        1.27459211038442
C           -2.73645223956513        2.16254386185922        0.29369618188038
C           -3.24005106816463        0.70483038954351        0.36778260571799
C           -4.10694132323851        0.13171605723668       -0.56441673378827
C           -4.61455886744179       -1.19610402818117       -0.48686012931445
O           -5.47603226486200       -1.61848531889735       -1.46175322881276
C           -5.93057015279492       -0.71557721325473       -2.44616808667841
C           -4.25050372292020       -2.07991159798845        0.59749050500029
O           -4.74200858781457       -5.57641641305308        0.68033583368497
C           -4.93288993084274       -5.45632851989087        1.88945709662166
C           -3.36486510666158       -1.46818119604954        1.46574938069807
C           -2.88043286888135       -0.15647385673077        1.39482128790731
C           -2.13709928825937        2.49407490170448       -1.09378591507542
C           -1.21588006935835        1.43619743269339       -1.73659847655698
C            0.11009205033363        1.30736980906917       -1.09776772744454
N            0.59970996773840        0.13521568546288       -0.60379132823574
C            1.97858280217241        0.06072198702346       -0.20271980185916
C            2.91604643420108       -0.40566363961382       -1.34284074476560
C            4.34384415080819       -0.37930922294377       -0.88268174277324
C            5.10562747460525        0.76637405142010       -1.01314407465576
C            6.41730170665860        0.81027542604482       -0.56015457365967
C            6.98728030778398       -0.30075888027934        0.03583457178514
O            8.26147711302584       -0.38017335630072        0.51068641626419
C            9.09441149332611        0.74521118162968        0.39027765345924
C            6.21798198856845       -1.47844849042580        0.17957107085897
O            6.86885533737229       -2.51620214754164        0.77387821221783
C            6.19466363198332       -3.73489635727234        0.94084379798420
C            4.91296961708224       -1.49949512289931       -0.27470867756806
C           -0.11358581591163       -1.10632103716514       -0.79070393449212
C           -3.91580437572365        3.15124702214841        0.53867475137504
C           -4.59227907334295        2.89481133297614        1.88489693427020
C           -3.53370757103383        4.62800209327555        0.45217477572826
H           -4.40767893493731        0.78244516871031       -1.37635244642874
H           -6.41200376058764        0.17180261587573       -2.02258921082101
H           -6.68141391012242       -1.24214429364533       -3.03575795357167
H           -5.11797965651806       -0.39091682520880       -3.10627540497346
H           -4.66703023283303       -3.36128405907955        1.30690320225165
H           -5.94299869657404       -5.53892146535016        2.25841497403904
H           -4.13389140132260       -5.89015262032748        2.42616835906508
H           -3.04713518501343       -2.06180802012606        2.30919064349404
H           -2.23089573410764        0.19380951913561        2.18429453043842
H           -2.95772088616538        2.66746557221322       -1.80142211011203
H           -1.56874779104041        3.42227918483892       -0.95939751530958
H           -1.74229628090431        0.49516222426279       -1.79344076085650
H           -1.04922754415361        1.78599795297609       -2.76936787340943
H           -0.71697945653532        1.76893560755285        1.00650196589108
H            0.72522319740115        2.18142831222492       -0.95534301493402
H            2.07541519171494       -0.64479381746490        0.63322844405985
H            2.30254901634866        1.04911832018911        0.14259900208570
H            2.78247647206754        0.26247898487040       -2.19552313460443
H            2.63753519344590       -1.41717602920827       -1.64705924303184
H            4.68134310721837        1.64029509053065       -1.48430336062284
H            6.98179047580487        1.72132005961567       -0.68958816760733
H            8.69594733205311        1.60850096104107        0.93544205281119
H            9.25205418347039        1.02456174143724       -0.65787832615926
H           10.04540065820545        0.44896432017461        0.83116440593444
H            6.91362111119636       -4.40278346109419        1.41424672748949
H            5.32071439911067       -3.62839840108944        1.59247364165367
H            5.88534987442453       -4.15683045146966       -0.02113728336488
H            4.32170072098214       -2.39566220105236       -0.17031606833625
H           -0.25364737600449       -1.31719879037017       -1.85942944637000
H           -1.09192847347332       -1.04948558326563       -0.30536576195018
H            0.44292271661873       -1.91827546701809       -0.32587134522428
H           -4.64301043451089        2.96592694118636       -0.25926531197270
H           -3.90576567729821        3.13702457629448        2.68730467016707
H           -4.89643145611058        1.85735139811632        1.98495507284643
H           -5.47909519973271        3.52764563860674        1.96653092091249
H           -2.77288539052375        4.86268569778039        1.19810416184062
H           -3.17763584969659        4.91025221215427       -0.53634148506983
H           -4.42217723817527        5.22428961856960        0.65526124725369
H           -0.80685514465661        3.22863044696567        2.79263723834531
