72
 energy: 21.717302485680 xtb: 6.6.1 (8d0f1dd)
N           -1.59998120228993        3.14083427899488        2.26894560861841
C           -1.56249316867023        2.41925503601964        1.24194424520508
C           -2.69746296641321        2.27052270901735        0.26335380489100
C           -3.21967436720789        0.84150872323000        0.32495484738618
C           -4.13589141095835        0.39720919958925       -0.62693483650893
C           -4.66715926584838       -0.88397723378839       -0.57626021553258
O           -5.58919865298895       -1.37670247031466       -1.45425845894095
C           -6.09607446379045       -0.52833173259720       -2.45827792181983
C           -4.25384260298461       -1.74903370604801        0.43446061580349
O           -4.75873497501783       -5.52401427289625        1.37934046272448
C           -5.08122016502562       -6.25240408381312        2.28830115363986
C           -3.33980521240115       -1.31965145803025        1.37593229623811
C           -2.82551699865579       -0.03008385965551        1.33097617347652
C           -2.10118939918681        2.56678993970952       -1.13922413492258
C           -1.21917082565467        1.44454432428724       -1.71454927170861
C            0.06765160505790        1.29718464662454       -0.99723126590700
N            0.61874213085231        0.09376536799863       -0.64412731611987
C            1.98250967174682        0.03327591886024       -0.21334837561480
C            2.93396177921883       -0.45462933736423       -1.32870359078978
C            4.35879395764031       -0.39624468434040       -0.86995453475313
C            5.10189893786977        0.75883001334406       -1.02241803720936
C            6.41309185826026        0.82553266934664       -0.57244213059492
C            6.99942125260357       -0.26481551620873        0.04441061334083
O            8.27574113652074       -0.31481357505506        0.51958805429551
C            9.09373197370838        0.81685140930366        0.36651495918915
C            6.24609923345748       -1.44914403975081        0.21364965563593
O            6.90687305343943       -2.47022169147184        0.82712851093200
C            6.24333663396388       -3.69480723983686        1.00539250500696
C            4.94090464146059       -1.49585627391716       -0.23890542392746
C           -0.11015868437853       -1.13981795125528       -0.76149584873952
C           -3.88555063211613        3.23430519628019        0.54303275687716
C           -4.55213344111689        2.92178868290099        1.88094707735526
C           -3.48518371392920        4.70959518889611        0.50251541062624
H           -4.45196749286302        1.06573799502413       -1.40909712042143
H           -6.58008556284077        0.36047727182756       -2.03980871178514
H           -6.84219928858929       -1.11319547526492       -2.99456893211042
H           -5.31667005064510       -0.21568366379327       -3.16272806194963
H           -4.68715188279436       -2.76010664287183        0.43782323080951
H           -6.07665681415787       -6.17942121185921        2.74953809178746
H           -4.37051171409962       -6.94719322917023        2.75511674635715
H           -3.02824952563551       -1.99728789953378        2.15948601431005
H           -2.13498825871768        0.29145877344299        2.09543202818940
H           -2.91513297247364        2.75385140338089       -1.84208354862604
H           -1.50549755904259        3.47955073566312       -1.08078049941100
H           -1.78068746570361        0.51183866314815       -1.71643579184046
H           -1.00765403737294        1.71148835923917       -2.76113291815497
H           -0.66844634349461        1.86341563438392        0.90920391717573
H            0.73608396975680        2.13973648063385       -0.99434221652581
H            2.05646969630405       -0.64095928165302        0.64714842798391
H            2.29874477633722        1.02786933408393        0.11038775447766
H            2.79299311748684        0.18979968778487       -2.19804667461587
H            2.66293868099026       -1.47480720358125       -1.60571825571994
H            4.66593683024410        1.61941609853026       -1.50790259605213
H            6.96911106713613        1.73827216271287       -0.71755084398173
H            8.68813230982754        1.68617514006913        0.89560947671183
H            9.24055706122305        1.07112409920177       -0.68891772985900
H           10.05138972559515        0.54367262924744        0.80702451884743
H            6.96920633457053       -4.34957448216966        1.48518122183171
H            5.36705804805156       -3.59183712913617        1.65451223462111
H            5.93836435931727       -4.13337849825854        0.04902170076309
H            4.35651789528213       -2.39487084031662       -0.11863744117214
H           -0.29007029295803       -1.42308647487688       -1.80646157824384
H           -1.07456904202970       -1.05283886404950       -0.25680814247896
H            0.46170750289445       -1.93000154968253       -0.27900108750720
H           -4.62341400682144        3.06218379839404       -0.25081511574059
H           -3.85534749801529        3.10585237065565        2.69229987538111
H           -4.87208374950568        1.88286611257503        1.92319445353949
H           -5.42530433446204        3.55710572500691        2.01423079116712
H           -2.72077449032311        4.91328615300306        1.24674674872547
H           -3.11641935395621        5.00061765445388       -0.47812053295297
H           -4.35360813901171        5.32484424032212        0.72878517367501
H           -0.74903874461730        3.15294878723260        2.82930913083255
