72
 energy: 22.607191977555 xtb: 6.6.1 (8d0f1dd)
N           -1.59612069027783        3.11239940617773        2.28816747912813
C           -1.56148743638180        2.42070046062481        1.24046674658380
C           -2.69631386494205        2.27657042866773        0.26092874368543
C           -3.22723678635538        0.83867180029474        0.31941839639654
C           -4.15044624919115        0.38415000069939       -0.62239151146102
C           -4.68293993078704       -0.90245905870785       -0.56465775307744
O           -5.60723330308313       -1.37041547917572       -1.45326811513236
C           -6.10341131014263       -0.51163712995792       -2.45813373522522
C           -4.25792015443273       -1.76308841251919        0.45264184389883
O           -4.77381184350690       -5.68716224307670        1.21158811320150
C           -5.08189597403863       -6.19014772659209        2.25448276232554
C           -3.33612541051584       -1.31966719380873        1.37701264194617
C           -2.82890292421396       -0.03357194499542        1.32151164578302
C           -2.09644596754615        2.57424171965685       -1.14368317805664
C           -1.22140820233507        1.44098021119525       -1.70603072674323
C            0.05771363712511        1.29805955320623       -0.97039651781268
N            0.62477734004883        0.08801358180969       -0.66844785389639
C            1.98115143954747        0.03093624834314       -0.21601403395648
C            2.93693601815556       -0.45912500282025       -1.32688641819147
C            4.36102064216590       -0.39740828434195       -0.86768397074295
C            5.10353271932319        0.75755457430294       -1.02307884295132
C            6.41453201985724        0.82515032997145       -0.57382307516066
C            7.00086047402109       -0.26373002790615        0.04456422170804
O            8.27596586990729       -0.31136040055550        0.52214429741520
C            9.09370822813427        0.81936339434486        0.36668297340152
C            6.24846163547521       -1.44796179666310        0.21471274835332
O            6.90718679804642       -2.46966893061332        0.82896491197793
C            6.24196860336657       -3.69457663266481        1.00370805798361
C            4.94346897480793       -1.49577724246801       -0.23749026511273
C           -0.11087391068013       -1.14306284726369       -0.75570137349843
C           -3.88176054675847        3.24414842812350        0.54373649358711
C           -4.55051951044908        2.92579415794146        1.87955079761943
C           -3.48140236364715        4.71978468181451        0.50716691044892
H           -4.45723364564377        1.06697070511658       -1.40253682839064
H           -6.59690124671890        0.38095916046557       -2.05321629649556
H           -6.84125883832082       -1.10601298042841       -2.99486651580282
H           -5.33199388932222       -0.19530879737271       -3.17066893027673
H           -4.64189817718588       -2.78646632785071        0.56023051692013
H           -6.08659815333612       -6.09845656701162        2.67616764648858
H           -4.37187397591471       -6.79694490280305        2.82599743552461
H           -3.00403563037229       -1.99027265918740        2.15587242842574
H           -2.13540340120651        0.28603163823623        2.07720285684082
H           -2.91761967250789        2.75988036655607       -1.83493842148806
H           -1.49847003224072        3.48828842408093       -1.10384669728548
H           -1.78876961059838        0.51312163201323       -1.69052645705068
H           -1.01205883513593        1.68195092077582       -2.75823869299377
H           -0.66232770140385        1.88360881690574        0.88558135876622
H            0.74519682709043        2.12163500325821       -1.01147766115747
H            2.04839251783123       -0.64114248217985        0.64635401239309
H            2.29971945324168        1.02522575227261        0.10688635638042
H            2.79658396933546        0.18127016837385       -2.19930424352136
H            2.66642514110295       -1.47879597192018       -1.60348205573173
H            4.66819634878603        1.61768431556303       -1.50901375469410
H            6.97030615027724        1.73770112047229       -0.71726743321058
H            8.68897597336620        1.68884238181930        0.89519669098412
H            9.24112623174886        1.07132383652226       -0.68868866746577
H           10.05125900859785        0.54644440267957        0.80693651370512
H            6.96666558218802       -4.35092225097542        1.48276071055622
H            5.36504982925675       -3.59259797749038        1.65217635689469
H            5.93736489479191       -4.13256672355645        0.04722660494515
H            4.35788934508220       -2.39419839790123       -0.11874630773121
H           -0.29381232311808       -1.44229393956948       -1.79240277419382
H           -1.07226825001218       -1.05581621721810       -0.24413667515729
H            0.46509443475852       -1.92948704002771       -0.27523375145106
H           -4.61943454477886        3.07683061501223       -0.24985305905926
H           -3.85387903719834        3.10228206371627        2.69112390407637
H           -4.87441646300567        1.88898714943518        1.91274879394372
H           -5.41984880382302        3.56243265466938        2.02023014997009
H           -2.71731032981158        4.91773701695811        1.25067024216991
H           -3.11057604276322        5.01161213891659       -0.47227545524875
H           -4.34616010924761        5.33999849565336        0.73527706497354
H           -0.74033994954807        3.12421731183310        2.84280501349308
