72
 energy: 36.150244275703 xtb: 6.6.1 (8d0f1dd)
N           -1.62357265384333        3.19846208936923        2.23285393881073
C           -1.56580087502269        2.43593332986108        1.23924373658627
C           -2.70713624212207        2.24525331906252        0.27261209377797
C           -3.23667690205584        0.79915223839049        0.32686208780377
C           -4.14744721983797        0.28308812781628       -0.59364794575950
C           -4.66949232160541       -1.02783623904580       -0.52273557560137
O           -5.55090525478168       -1.46805788160681       -1.46315668147141
C           -6.00635767798479       -0.59656800051677       -2.47189032363278
C           -4.28960352209663       -1.92496893703480        0.51465379535655
O           -4.82878719238920       -5.90681618173722        0.95401675266798
C           -5.04371605266652       -5.91875285381076        2.16539705121910
C           -3.36245327997197       -1.38437015667271        1.38948265540866
C           -2.85684087893141       -0.08607556427641        1.31996985727838
C           -2.10682703206692        2.56158029622233       -1.11316250082872
C           -1.21308702595573        1.47731681835323       -1.73256366594588
C            0.06718421663646        1.31097589636458       -1.00517068642156
N            0.62455159266507        0.10674165377277       -0.68547993686777
C            1.97505664127304        0.04754150515472       -0.21568464721111
C            2.91948105671827       -0.42364925356486       -1.33527793122023
C            4.34265824281395       -0.38099758989472       -0.87128943268531
C            5.09655018750944        0.76907235824391       -1.00551489370174
C            6.40989778802735        0.81352995415083       -0.56037304238571
C            6.98552866019133       -0.28997288296546        0.03817177864165
O            8.26028513693688       -0.35940731161897        0.50951760135990
C            9.09044643234753        0.76525192850602        0.37996224490487
C            6.22034903845181       -1.46825469340402        0.19195687483263
O            6.87284606118412       -2.50459971800692        0.78474224976711
C            6.19861055248001       -3.72721284926586        0.94520618938213
C            4.91296763969199       -1.49614006729660       -0.25890659227102
C           -0.12630206167350       -1.10312031123853       -0.80077832325821
C           -3.89461892466032        3.21875013656838        0.53952650211756
C           -4.58184500709726        2.92093044667390        1.87267913259919
C           -3.51334799234116        4.69431354552858        0.47377001295131
H           -4.44078750307981        0.95579016089268       -1.38785452185322
H           -6.51021230211783        0.29250267080566       -2.06645868085795
H           -6.71617707045387       -1.18819316271041       -3.04851369286937
H           -5.20872287474342       -0.27282281244875       -3.15131364769196
H           -4.63058105611486       -3.03029189830363        0.75179021178666
H           -6.05174919969972       -5.94285903931036        2.61505387155309
H           -4.32163130843721       -6.39440172552418        2.84265924058523
H           -3.00239459950263       -1.99517858869076        2.20117164878976
H           -2.16958670373235        0.26053018146115        2.07630917413920
H           -2.94089738304703        2.75551183942760       -1.78681653726081
H           -1.51326751674481        3.47753581953024       -1.04163881104324
H           -1.76548604360414        0.54095650350328       -1.77199009533499
H           -1.01388883928674        1.79482401407959       -2.76347439965320
H           -0.67083107829391        1.86222443102828        0.95158262236516
H            0.71629337680548        2.16402485700913       -0.92755441525835
H            2.05310110730776       -0.63223287456156        0.63688411124674
H            2.29621097742302        1.03688895290809        0.11615451325394
H            2.78377308908400        0.23260795244305       -2.19511630623508
H            2.63508241948324       -1.43376719960460       -1.62878863967136
H            4.67227172068846        1.64173864766938       -1.47819096011836
H            6.97876767032333        1.71908360192376       -0.68833566243938
H            8.69137463690180        1.62846117046352        0.92198136797243
H            9.24887162458101        1.03387175060875       -0.66901521643052
H           10.04269478319639        0.47632789421292        0.82082061899893
H            6.91850615188629       -4.39563460955298        1.41402977976804
H            5.32308423071820       -3.62728388506410        1.59570709233758
H            5.88909672504519       -4.15281428898982       -0.01507887962708
H            4.31873746003117       -2.39133849154538       -0.15655821542043
H           -0.28477203592463       -1.36720458783684       -1.84554987095554
H           -1.10132944394806       -1.02997435879481       -0.31053493704045
H            0.43445468170009       -1.90612023748699       -0.33776142730931
H           -4.62618636510475        3.04629501470232       -0.25609230936549
H           -3.90709119120195        3.16712061236542        2.68624813896411
H           -4.87318095502846        1.87764678358946        1.94303812613825
H           -5.46844614212587        3.53662657597862        1.96989164533491
H           -2.76083864386302        4.91312165236753        1.21251900946822
H           -3.14354959076876        4.98178715607591       -0.50658247265159
H           -4.38501862706763        5.30457646359640        0.69688234319555
H           -0.78384474086343        3.25979942098756        2.80874581205619
