72
 energy: 30.227363167820 xtb: 6.6.1 (8d0f1dd)
N           -1.60923467841927        3.15904374879689        2.26038168291325
C           -1.56018214417769        2.43787661091360        1.23518286410740
C           -2.70137506193903        2.26244188564121        0.26620146410153
C           -3.23640476865690        0.81944808493434        0.31907081587305
C           -4.15710597005514        0.32236184676695       -0.60149451356026
C           -4.68302319074283       -0.98291889126451       -0.53433947575186
O           -5.57986385712046       -1.42739230846237       -1.46003065133443
C           -6.04977601880997       -0.55823117373347       -2.46682198092453
C           -4.28132434886219       -1.87855238218777        0.48534444241171
O           -4.83195557139658       -5.82498217054495        1.08269903035403
C           -5.07616217130682       -6.01849393343366        2.25030881131381
C           -3.35479877852439       -1.36213767828613        1.37595750717304
C           -2.85005665825460       -0.06669717510254        1.30902254825788
C           -2.09909505865244        2.57102962758572       -1.12540015428607
C           -1.21494549744777        1.46589520748119       -1.72075746752754
C            0.05803576509487        1.30921697492823       -0.97387694436508
N            0.63044448092544        0.09809997106940       -0.70266481985893
C            1.97757873325523        0.03875221628172       -0.22092376156364
C            2.92818666545735       -0.44023015029212       -1.33288912866332
C            4.35081830025048       -0.38828552532386       -0.86973693500563
C            5.09890335971751        0.76457919642484       -1.01185123540815
C            6.41133275386145        0.81835657469864       -0.56546063646253
C            6.99143493018277       -0.27894469101217        0.04118723141466
O            8.26634180939131       -0.33911971085464        0.51479925040207
C            9.09141747657426        0.78784213936213        0.37395469518158
C            6.23183465203054       -1.45971716885802        0.20208111415102
O            6.88701575057750       -2.49021604098785        0.80323843203075
C            6.21629745521665       -3.71389345012886        0.96905331710711
C            4.92538843856344       -1.49614451177202       -0.24929280672775
C           -0.12043244152186       -1.11905056763790       -0.78452314691861
C           -3.88820477422032        3.23289712764043        0.54164822355312
C           -4.56860078546990        2.92413805263013        1.87532256344994
C           -3.49902774295381        4.70756156045633        0.48850613287775
H           -4.45180416979119        0.99985922001423       -1.39037800258876
H           -6.55057571229378        0.33283870261568       -2.06286240665454
H           -6.76902213420002       -1.15152947904280       -3.02993342621913
H           -5.26291127005316       -0.23633839740088       -3.15964116258829
H           -4.63036373005760       -2.96703582777797        0.66599173830546
H           -6.09957407420907       -6.03735887384707        2.67223371364079
H           -4.35363229687632       -6.53743106946406        2.90446843513725
H           -2.99141714390417       -1.98315402397558        2.17784190896997
H           -2.15447554936091        0.27484269252285        2.05840037320300
H           -2.92889919846075        2.76893230572858       -1.79563877851450
H           -1.50308763912917        3.48556928367945       -1.07186124578251
H           -1.77588980861867        0.53314409280276       -1.73395021847979
H           -1.01065577534975        1.74464287414728       -2.76179213081880
H           -0.66268627053748        1.88368591359175        0.91114197433118
H            0.73099947418594        2.14776925595357       -0.95623935240008
H            2.04725095417192       -0.63269838497866        0.63902863723542
H            2.29675211975101        1.03052091312005        0.10674651386773
H            2.78972640082496        0.20927110968884       -2.19769792600463
H            2.64810232215534       -1.45383095239043       -1.61822554240494
H            4.67027343447835        1.63213670420986       -1.49008478454670
H            6.97508049632439        1.72647730970373       -0.69960309808095
H            8.69030750002329        1.65371581018375        0.91028966480198
H            9.24542103343714        1.04907419233938       -0.67771953860678
H           10.04585591437059        0.50565258590557        0.81457957347833
H            6.93814879474965       -4.37756456595483        1.44175483426626
H            5.34012319091539       -3.61338724391414        1.61866174891247
H            5.90868594512477       -4.14464749020790        0.01038374883044
H            4.33414986047675       -2.39237282623983       -0.14050778009319
H           -0.29185062282228       -1.40469804501970       -1.82288687075865
H           -1.08867568651970       -1.03858317014646       -0.28227834418755
H            0.44677247047759       -1.91349033781379       -0.31208029662121
H           -4.62271069452842        3.06352500959583       -0.25287533052863
H           -3.88525388463425        3.14277387945092        2.68918349198115
H           -4.87312680480048        1.88334343430547        1.92771123258612
H           -5.44800252201268        3.54811039957444        1.99136613119245
H           -2.74197474175737        4.91712342597107        1.22818899785657
H           -3.12895774693372        4.99633142463048       -0.49147721845655
H           -4.36704410397838        5.32233396213275        0.71466556526595
H           -0.76222809200225        3.19964488832927        2.82641338071987
