72
 energy: 107.657448835546 xtb: 6.6.1 (8d0f1dd)
N           -1.62569134249941        3.03122954873264        2.26089874371885
C           -1.61012697963095        2.29104220308588        1.25210419822916
C           -2.75343275036174        2.11709451342191        0.29097362435364
C           -3.25859665308430        0.64206820260115        0.38390384860386
C           -4.13531114832709        0.07299798593736       -0.54307813394243
C           -4.64640206735022       -1.25170282009424       -0.50755334303861
O           -5.56028544378009       -1.61388049389497       -1.45997093277631
C           -6.04206334449236       -0.66579617858882       -2.40083815394016
C           -4.21727122709515       -2.13780057057254        0.50224634973085
O           -4.59907653229871       -4.63403919586001        0.56657292342614
C           -4.87784153055368       -4.90133744038593        1.85541051056963
C           -3.38287625457858       -1.56560826605401        1.45096282720687
C           -2.90946500527508       -0.23294314259974        1.40925636102244
C           -2.15951111713614        2.44073075849236       -1.11535599790411
C           -1.22995786127574        1.36838673229578       -1.71807105525643
C            0.08217241030526        1.27828332989587       -1.03071034506056
N            0.60297888527084        0.11340634780804       -0.59156163853351
C            1.99092116307537        0.03713525007424       -0.20393104361231
C            2.92799723477503       -0.44406928383996       -1.33738986280370
C            4.35901230343304       -0.39661629918836       -0.87788325441143
C            5.10756776599470        0.75457189661732       -1.02612920684393
C            6.41830206784166        0.81888439566294       -0.57262094169463
C            7.00147055197968       -0.27688818740438        0.04148699573896
O            8.27436186187739       -0.33420959329242        0.51857756045849
C            9.09643528322513        0.79700818330985        0.37417426602602
C            6.24321779540844       -1.46069361943090        0.20317602880087
O            6.89815032141390       -2.48272901105944        0.81625285515878
C            6.23021198080482       -3.70387363978256        0.99793350488689
C            4.93826570410393       -1.50067950307350       -0.25167283327319
C           -0.10004498740661       -1.15124613920252       -0.74595640820574
C           -3.91676016340307        3.13393612999906        0.54254368055097
C           -4.57159241366977        2.87286137836808        1.89716793390399
C           -3.49714703426402        4.61585133016313        0.48262499995404
H           -4.46347336439135        0.71263385736581       -1.34594069161224
H           -6.50820758461502        0.22243603171134       -1.95097512086293
H           -6.80945543985033       -1.18122526478843       -2.98115648476038
H           -5.25638063447451       -0.32509515613945       -3.08758390492020
H           -4.75685439878496       -3.88833235322637        2.19360534956713
H           -5.90887881506327       -5.25231024929565        2.03958027868153
H           -4.12164347658091       -5.61031394277000        2.10715323510217
H           -3.02818801777727       -2.15469017210483        2.29146232027035
H           -2.25366785168612        0.10355526427273        2.19942138121583
H           -2.98296513036185        2.59154390814170       -1.82282276522994
H           -1.59019071118607        3.37590962192390       -1.02653289042530
H           -1.75250859335863        0.42356125195020       -1.73314956915931
H           -1.05910338737279        1.66698076350487       -2.76510733941712
H           -0.71649064540979        1.73017775907918        0.91039116936100
H            0.74899504318874        2.13332130873989       -1.03176912442375
H            2.09752237531946       -0.65122491835720        0.64740249519515
H            2.30967525028221        1.03245852468626        0.12371899893981
H            2.79282186978850        0.20808769191359       -2.20252864470670
H            2.66061585604878       -1.46348074678376       -1.62337221005851
H            4.67423774556977        1.61799953796248       -1.50844292180818
H            6.96911814713983        1.73578571860548       -0.71497702072117
H            8.69023406600718        1.66504138727110        0.90584470608151
H            9.24357381390385        1.05834713928568       -0.68002930192622
H           10.05275311821425        0.51726569180522        0.81538110175552
H            6.95180071154807       -4.36135216782905        1.48151669359235
H            5.35448339947440       -3.59393921595480        1.64672629399472
H            5.92499202233575       -4.13847934784576        0.04053610260146
H            4.35347860364292       -2.39915025156852       -0.13174554604163
H           -0.26028163340646       -1.39790822956517       -1.80538090268282
H           -1.07306152447641       -1.10126127717901       -0.25128853379590
H            0.46731375634811       -1.95287524398676       -0.27315937958105
H           -4.65508490267060        2.95856179669590       -0.25240541093075
H           -3.86092214670431        3.07416632459526        2.69080208111692
H           -4.90927293263082        1.84678928829837        1.96589192982201
H           -5.43741354104067        3.52835768064278        2.01584294617886
H           -2.72579126495842        4.82086010322207        1.22565635887369
H           -3.13699255879530        4.92120231342738       -0.49892961955892
H           -4.36615954092153        5.23910342407066        0.70370114227480
H           -0.75456254969344        3.09990903817954        2.77720016907799
