72
 energy: 85.135460901996 xtb: 6.6.1 (8d0f1dd)
N           -1.60881870106864        2.99858464211274        2.25989144129709
C           -1.60064818316040        2.27084859579611        1.23984298611421
C           -2.75752229083925        2.10280361883335        0.28888595343864
C           -3.26933583534636        0.62463574364895        0.38511854288184
C           -4.16012654698677        0.05226080349000       -0.53101469145984
C           -4.67292071399627       -1.27059704504485       -0.49720250144297
O           -5.59553501859222       -1.60655086888882       -1.45056501715381
C           -6.08398283549246       -0.65358869557554       -2.38693611205005
C           -4.23459380749345       -2.20834325881036        0.50197916134882
O           -4.56920877443930       -4.28499300620670        0.58079237239532
C           -4.84334018619057       -4.79124798646922        1.81564730757400
C           -3.38931126067476       -1.60354322316167        1.43814786860890
C           -2.91911187410486       -0.26523280101734        1.39777381310527
C           -2.16679450730358        2.42100540486895       -1.12424728293629
C           -1.23453848256780        1.34507212687945       -1.71707764476286
C            0.07142139527202        1.26551842078209       -1.01620448269505
N            0.61240348521986        0.08905936435388       -0.59668347923061
C            1.99475324328191        0.02585040381802       -0.20245119107621
C            2.93382789902199       -0.45824253304586       -1.33316500485960
C            4.36309280559631       -0.40351774995261       -0.87653139661498
C            5.10680157793807        0.75032946396040       -1.03024669231875
C            6.41657431619937        0.82201523693041       -0.57649106330662
C            7.00334462419971       -0.26864841909600        0.04337291656708
O            8.27785986111731       -0.31893593596301        0.52072600136124
C            9.09466633704437        0.81388728554570        0.36789419445750
C            6.24970651773303       -1.45371206866210        0.21213882686906
O            6.90747551192064       -2.47170150221740        0.83154740512152
C            6.24144057947820       -3.69272103844049        1.01723081490365
C            4.94532345261800       -1.50111860121619       -0.24238048323681
C           -0.09324074768049       -1.17173946369089       -0.73344502826022
C           -3.91144210140707        3.13175079449760        0.54671346817017
C           -4.56276847454651        2.86230005986744        1.90191372428027
C           -3.48260959599743        4.60914708812105        0.49336973228053
H           -4.49931218390421        0.69790197310830       -1.32898572459035
H           -6.54882615561054        0.23306632719293       -1.93296602560230
H           -6.85513395238856       -1.17243459567603       -2.95994050852320
H           -5.30638957927398       -0.31222756167031       -3.08215162538004
H           -4.76977127237392       -3.89293584353362        2.35502289063287
H           -5.84183818832369       -5.22955206667894        1.92197584793949
H           -4.04103180258693       -5.48822598308963        1.97708701371245
H           -3.00752299323024       -2.17783775548230        2.27383514393666
H           -2.25592705725666        0.06934176662097        2.18189275037889
H           -2.99147754541085        2.56642943305989       -1.83079554080158
H           -1.59816501393633        3.35901445632428       -1.05001614104011
H           -1.75349639314827        0.39758460034738       -1.71804701287451
H           -1.06643212711008        1.62764414036339       -2.76993590993606
H           -0.71319302982732        1.71647811621308        0.87693735144401
H            0.75291924613196        2.10510094405025       -1.04795333622959
H            2.10631227996359       -0.65491576129001        0.65488718266792
H            2.30868919465842        1.02552300542693        0.11712591467209
H            2.79131330188438        0.18970950766584       -2.20013831214807
H            2.66612583395000       -1.47932691682784       -1.61256230613368
H            4.66909925687842        1.60994804769942       -1.51545825911252
H            6.96419328682834        1.74001975809856       -0.72360565493534
H            8.68588454454283        1.68344352312010        0.89509037437564
H            9.23888365299748        1.06932617064779       -0.68809543204397
H           10.05295538152400        0.53999459336252        0.80878651912910
H            6.96394789028482       -4.34708732903743        1.50387484939662
H            5.36490786181344       -3.58214678033272        1.66506551380154
H            5.93706089348111       -4.13182053554812        0.06151844028340
H            4.36124649618482       -2.39933134328989       -0.11664276681464
H           -0.25757402256799       -1.42945698512353       -1.78953961502108
H           -1.06498755606258       -1.11895347083593       -0.23534213917995
H            0.47561966465394       -1.96970381433264       -0.25615051861350
H           -4.65347812363781        2.97291051397927       -0.24990951476291
H           -3.84524299039812        3.05332340199360        2.69207086603431
H           -4.90335322810310        1.83601427749750        1.96384498965086
H           -5.42419322545706        3.52066322880140        2.03281236142098
H           -2.70873035956822        4.80492924916821        1.23378377255285
H           -3.12207968685582        4.91320457041272       -0.48805557966150
H           -4.34611434396263        5.23892226287053        0.71900950884815
H           -0.73359638910932        3.05768300751537        2.76880394615606
