72
 energy: -4.411109914261 xtb: 6.6.1 (8d0f1dd)
N           -1.50812363650847        2.80445131619417        2.23933023134850
C           -1.55646307027001        2.16537139149542        1.16000254278910
C           -2.74906902127125        2.06790405973512        0.24974637584159
C           -3.31493912845972        0.65067435702372        0.33509789457800
C           -4.28804731756523        0.21492902676621       -0.56561262928245
C           -4.82337956844950       -1.06508886413561       -0.52418958095831
O           -5.78880403463089       -1.50766974693094       -1.38058089933586
C           -6.35113920425736       -0.61225682150399       -2.30907885117721
C           -4.36889416226185       -2.00509388376062        0.44140765232374
O           -4.87870521912505       -3.29266650207457        0.37079952963941
C           -4.67149139767598       -4.18264278021629        1.43890323719051
C           -3.41873022450508       -1.55427160284468        1.34890377304919
C           -2.90303662293071       -0.25762453666744        1.29435763459532
C           -2.19110703882613        2.31859419906657       -1.17752136118542
C           -1.25881108568702        1.19961238308485       -1.67376816881569
C            0.01187458545546        1.14514677781663       -0.90376519825820
N            0.63788503109475       -0.03611624598966       -0.56504626352799
C            2.00483211695932       -0.03058644654502       -0.16559831612878
C            2.93904692101211       -0.53106535061183       -1.28807644833831
C            4.36219005071129       -0.43053731844199       -0.84495647701274
C            5.08146840090019        0.73331052391443       -1.04139156671575
C            6.39151491723440        0.83984653406139       -0.59877801572411
C            6.99902008379455       -0.21712503211639        0.05573608086381
O            8.27822004851742       -0.22636484207395        0.52810997138696
C            9.07372560023081        0.91221183787457        0.32707814235442
C            6.26899751938425       -1.40810258047935        0.26991049554454
O            6.94864183464134       -2.39667293134242        0.91711028767715
C            6.30614658348746       -3.62551132581525        1.13343262755497
C            4.96452677003128       -1.49501894953630       -0.17482094370710
C           -0.05646343777680       -1.28798209975842       -0.63858945966842
C           -3.87569705967565        3.08778690490140        0.57782061092850
C           -4.50410293276136        2.78889228828056        1.93754240243630
C           -3.40698236488883        4.54300470776140        0.54252652179300
H           -4.63334706988783        0.90875519854348       -1.31649794654439
H           -6.80626440883764        0.25858594567922       -1.82313801675146
H           -7.12901522151250       -1.17917416635588       -2.81935585640043
H           -5.61631792351653       -0.27051736512386       -3.04682408119981
H           -4.85027086494627       -3.63085165867330        2.35257719630235
H           -5.36963378788588       -5.00978888088292        1.31249092340640
H           -3.64776969326157       -4.56664313519672        1.42932749107510
H           -3.04805643408257       -2.21008420848231        2.12016391580622
H           -2.16521519490760        0.04186151246870        2.02422309401824
H           -3.02173056506437        2.41091598486187       -1.87916431719801
H           -1.64238568057867        3.26406817923923       -1.18207473537559
H           -1.79515087758434        0.25339321634321       -1.63523996400473
H           -1.02297050946453        1.40853515887473       -2.72722954049774
H           -0.68840137827646        1.65806770415223        0.67122674906830
H            0.66232861174436        2.00120745002565       -0.96381695296446
H            2.12629391104256       -0.66806363282400        0.71826494343532
H            2.29589846499705        0.98609387184944        0.10917153113728
H            2.76804935014678        0.08574892316503       -2.17220936108453
H            2.67945630408248       -1.56294427741800       -1.52875935858618
H            4.62794224526051        1.56830200134379       -1.55470496862466
H            6.92977664338904        1.75644624209683       -0.77974799427517
H            8.65604888493426        1.79236255385614        0.82809215241195
H            9.20645968036370        1.13037010389001       -0.73815125868899
H           10.03984825285841        0.67045844280490        0.76837768192060
H            7.04269212905199       -4.25298489336284        1.63331592178941
H            5.42798879231726       -3.51748173004378        1.77978074429734
H            6.00858764831307       -4.09815435292863        0.19116707062373
H            4.39589165332219       -2.39915989422629       -0.02147298369687
H           -0.23024354585141       -1.59828381865704       -1.67620032663531
H           -1.02250702290291       -1.22478213414387       -0.12829203881375
H            0.54526039875234       -2.04646618057081       -0.14335548338378
H           -4.64850474790016        2.96634376028816       -0.19134414797861
H           -3.76668385246822        2.92483436846616        2.72143378610757
H           -4.87716230299686        1.76891133841274        1.97550614403354
H           -5.33611713385042        3.46771527864654        2.11462466385005
H           -2.61573181391283        4.70355577402418        1.26832030181724
H           -3.05158878878002        4.83337422189676       -0.44345578473007
H           -4.24035940616731        5.19504856666956        0.79808655265754
H           -0.61804911314316        2.80820348583623        2.73247513806588
