72
 energy: 64.916575493237 xtb: 6.6.1 (8d0f1dd)
N           -1.66775409781573        3.18057234560560        2.23189859660569
C           -1.60412502806861        2.37639202485892        1.27230183679857
C           -2.73173927513353        2.17894358387688        0.29051171421532
C           -3.23876625510157        0.72392148130894        0.36089021122840
C           -4.11085158960071        0.16027569807072       -0.57037496362607
C           -4.61621030623045       -1.16655391833908       -0.49451040129580
O           -5.47094110078811       -1.59555062540035       -1.46789199389510
C           -5.90304700491746       -0.71080230230251       -2.47100552756411
C           -4.27395659811054       -2.05848145378927        0.59138996667222
O           -4.79156581066075       -5.77004233195572        0.73912028410388
C           -4.96427675329072       -5.59633637671061        1.94512448004707
C           -3.36672164717898       -1.45482223217698        1.44765137306235
C           -2.87548382724290       -0.14570650526210        1.37855868753448
C           -2.13007448154280        2.51319651095192       -1.09237318788341
C           -1.21011578562975        1.45766180509616       -1.74179694886333
C            0.11110847754205        1.31178995565280       -1.09661426938908
N            0.60457221197406        0.13437643900643       -0.61835787963134
C            1.97500679462790        0.06488208001381       -0.20202658249312
C            2.91105687651399       -0.39472747304306       -1.34297067496914
C            4.33819191015946       -0.37447889601137       -0.88231883801951
C            5.10333532389395        0.76928629976514       -1.00868796535804
C            6.41537503481801        0.80665042273292       -0.55667169737931
C            6.98190536983118       -0.30878260614603        0.03313776314077
O            8.25569972550436       -0.39478981947941        0.50634078616419
C            9.09224698332074        0.72834457001581        0.39396245968642
C            6.20896180743487       -1.48455424517558        0.17229676959534
O            6.85747535547668       -2.52657664559137        0.76059272103400
C            6.18057121475908       -3.74443579528638        0.92288371977593
C            4.90336761006690       -1.49949227386948       -0.28041412543028
C           -0.11703664382183       -1.09505855690468       -0.80677248365351
C           -3.91443601570781        3.16473217078712        0.53706550227241
C           -4.59796266558579        2.90464492592636        1.87936629840652
C           -3.53789981183691        4.64189800749113        0.44751191149272
H           -4.41158466761649        0.81810559880133       -1.37698794046337
H           -6.39847754614736        0.17656140319521       -2.05915991230551
H           -6.63907298873656       -1.26217723198717       -3.05636788410937
H           -5.08082951246374       -0.38759749392467       -3.12182492169658
H           -4.66500507784769       -3.25066060616945        1.13247083754713
H           -5.96553370110248       -5.64760068571010        2.34513157585026
H           -4.16326259386215       -6.00585867722403        2.51404398016632
H           -3.03173519254027       -2.05457768344846        2.27918495450739
H           -2.22127563578114        0.20580481932809        2.16400893789362
H           -2.95109451635737        2.69119966702947       -1.79665997134836
H           -1.55275932781464        3.43821591035507       -0.96313077464634
H           -1.73591591385545        0.51610232029547       -1.82196954025891
H           -1.03928950802557        1.82798571773621       -2.76622632247411
H           -0.70960516823090        1.78566310877367        1.02643137153661
H            0.71511943622956        2.18904191997973       -0.92425106516510
H            2.06597989013558       -0.64378756702762        0.63001027124586
H            2.29968279496831        1.05055513751902        0.14424033732862
H            2.77827004696032        0.27980860642021       -2.19104569090532
H            2.62725641692590       -1.40254374122537       -1.65269363124196
H            4.68196681188888        1.64695019743491       -1.47508414962574
H            6.98408569913546        1.71546808270734       -0.68114792350080
H            8.69581511588707        1.58966031573598        0.94331297017942
H            9.25344588730839        1.01289742028796       -0.65203827282069
H           10.04152022445687        0.42727513209091        0.83499502625170
H            6.89847043387852       -4.41562251328484        1.39283580004539
H            5.30716810976153       -3.63910668587974        1.57542998193503
H            5.86981685842357       -4.16248046172203       -0.04033510374388
H            4.30876579211813       -2.39397510946557       -0.18058865201195
H           -0.24934650184770       -1.29123574668900       -1.87719986423435
H           -1.09822156030012       -1.03760215640913       -0.32648867836776
H            0.43444623378933       -1.91202402161217       -0.34654347121367
H           -4.64165434772386        2.98107604289141       -0.25983778861252
H           -3.92120984865286        3.15973768554429        2.68564009047668
H           -4.88558934459993        1.86269375527480        1.98299214757383
H           -5.49440801981637        3.52079450163401        1.95155820036820
H           -2.78028182258290        4.87023215283540        1.19165567107618
H           -3.17857907651005        4.92435406098294       -0.53955217420315
H           -4.42421033456475        5.24025866420796        0.65230066184676
H           -0.82028454635301        3.27224872512261        2.78528191910286
