72
 energy: 29.559017443552 xtb: 6.6.1 (8d0f1dd)
N           -1.57453527811619        2.93799786297084        2.25419399396360
C           -1.58631016320755        2.22601611341355        1.21841586765121
C           -2.76090053314108        2.08501473601347        0.27780530552175
C           -3.28966029620334        0.61495432216768        0.37406859833680
C           -4.21077711345090        0.07755339239129       -0.53128874654307
C           -4.72678674836217       -1.24041454835254       -0.49165244197971
O           -5.66436391974920       -1.58096320550710       -1.43049619687304
C           -6.17128025112968       -0.63423058164463       -2.36201314521997
C           -4.28782395257534       -2.22908618897856        0.50210625008846
O           -4.58039730289509       -3.78453123774216        0.53887412667475
C           -4.76280962241591       -4.57905432756587        1.68451923407873
C           -3.39396095739596       -1.62409252138568        1.40810207627152
C           -2.92624723841429       -0.29255783563840        1.36538766353516
C           -2.17903197909117        2.38432908415855       -1.14292317168523
C           -1.24350269964720        1.29743212077924       -1.70838913476698
C            0.03811237739092        1.24304774550482       -0.95867634279122
N            0.62569552799033        0.04454697459599       -0.60013623853533
C            1.99908019184284        0.00441704703493       -0.19502497504991
C            2.94201855643755       -0.48558545086159       -1.32219086537341
C            4.36755909861881       -0.41685755154201       -0.87229796938484
C            5.10195188592104        0.74265550119513       -1.03706892821247
C            6.41012021084541        0.82814302794617       -0.58356143601152
C            7.00481778276262       -0.25173015210645        0.04797060472885
O            8.28355391014228       -0.28844164128621        0.52492196024051
C            9.08998336070074        0.84719030516429        0.35464528886626
C            6.26023188984264       -1.43899448276458        0.23076530727868
O            6.92507257005212       -2.44908341010003        0.86125432451359
C            6.26365376830835       -3.67033563862314        1.05583674943447
C            4.95667673957567       -1.50088922881218       -0.22191682616329
C           -0.08013439244671       -1.21076131256331       -0.70617154908477
C           -3.90095946564129        3.11882094640936        0.55663898486633
C           -4.54428030238884        2.83863540602640        1.91306559520328
C           -3.45623387904636        4.58945122348141        0.51259504388977
H           -4.55205062532633        0.74870149501300       -1.31251605168177
H           -6.63250063247578        0.24787276686747       -1.89748377151844
H           -6.94736705237127       -1.16551046684938       -2.91644305866049
H           -5.40799847670679       -0.29201225610647       -3.07163116666142
H           -4.79456763177824       -3.94484819021380        2.52163665851890
H           -5.67394884876987       -5.18236901261823        1.68000960974628
H           -3.87554949108879       -5.20737426595445        1.74400658470042
H           -2.99518654547248       -2.19541226417186        2.22884216461089
H           -2.24186045046447        0.05560107659485        2.12617683300319
H           -3.00569409806445        2.51632045937570       -1.84789068502066
H           -1.61331034712312        3.32543969843295       -1.09478454377678
H           -1.76022851766836        0.34671432725927       -1.68906299308689
H           -1.06571953421473        1.54772886243451       -2.77047005979641
H           -0.70583165510343        1.69124688204819        0.80724031022200
H            0.73072720269642        2.06399187118360       -1.05012933886022
H            2.12088773649460       -0.66244230681500        0.67250766035850
H            2.30698961203816        1.00996045193569        0.11070774042540
H            2.78402219087715        0.15463252823314       -2.19180261406918
H            2.67366419376868       -1.50987356121642       -1.58843414846715
H            4.65665815451051        1.59474370538658       -1.52873460447793
H            6.95310296750178        1.74709824936329       -0.74136540683584
H            8.67616435307270        1.71980912386132        0.87252647030889
H            9.22857105147314        1.09015742971621       -0.70496512730130
H           10.05206256075827        0.58543766273397        0.79550196368093
H            6.98916613661502       -4.31761399575985        1.54766982278481
H            5.38590952186011       -3.55901763667403        1.70230539857738
H            5.96051457850491       -4.11927023324013        0.10410826113533
H            4.37465495417625       -2.39889046709626       -0.08521059233877
H           -0.25238671381804       -1.49059600827439       -1.75592781662427
H           -1.04951199134863       -1.15270560108534       -0.20168454961438
H            0.49438825388530       -2.00029005993393       -0.22095068478100
H           -4.65357761707441        2.99028864062926       -0.23580833497684
H           -3.81518412268544        3.01091327125027        2.69701723850234
H           -4.89324407240571        1.81328680193429        1.96508106555996
H           -5.39608928240730        3.50404143872262        2.06372155633973
H           -2.67667856719887        4.76995061550566        1.24731257701020
H           -3.09619624133388        4.88901329761708       -0.47007127522121
H           -4.30799401137170        5.23145364694515        0.74863028842343
H           -0.69479077913178        2.97254519023668        2.75764704647157
