72
 energy: -99.251205392858 gnorm: 0.003343079807 xtb: 6.6.1 (8d0f1dd)
N           -1.88375854475886        2.85031234621270        2.25043969587396
C           -1.83326737007047        2.14147075795396        1.22343136195198
C           -2.97739858421656        1.92969072123149        0.27105994653694
C           -3.43965983500490        0.48236888585112        0.34222269388243
C           -4.34491940410280       -0.00313896303230       -0.60388456391288
C           -4.81079057390455       -1.30619621547332       -0.55766007149150
O           -5.69012231739494       -1.85121685053538       -1.42438930142438
C           -6.27809313688659       -1.03814584774522       -2.41229540351332
C           -4.35318842068724       -2.17715371292477        0.46751499719480
O           -4.85347715402218       -3.42912765748317        0.43092801808120
C           -4.52213757405494       -4.32839336813604        1.46294799691521
C           -3.45696837855464       -1.68881836222364        1.40425781427454
C           -3.00888445345888       -0.37476541242401        1.34240341057113
C           -2.41344679395448        2.23999913673634       -1.14031200985360
C           -1.48021072932046        1.15523195953976       -1.70915084806425
C           -0.14844018677375        1.11174798270377       -1.06421936534315
N            0.49042685570483        0.00833838922742       -0.68689381724911
C            1.88428303799992        0.05671594060481       -0.31429028334489
C            2.79260000689994       -0.46303019573428       -1.44648772627510
C            4.23872727889204       -0.27461264660872       -1.08051797085141
C            4.92384582035068        0.86808278796637       -1.50018135815501
C            6.23201598726333        1.03616796335441       -1.14216939040611
C            6.90154159709179        0.11003065342839       -0.36783831647990
O            8.18407834276164        0.25759932349776        0.04818030304681
C            8.89886452713667        1.27498710649113       -0.33280348664159
C            6.22360795310067       -1.06653058486641        0.06364604179943
O            6.95552796288334       -1.92205810335569        0.80101600418180
C            6.35322994236690       -3.09460803279076        1.29959644664934
C            4.89502607159639       -1.22660719062558       -0.30525306904682
C           -0.14236278058698       -1.28878892751506       -0.71274373655869
C           -4.20342650200199        2.84466585492349        0.56558751200572
C           -4.83814488806314        2.51191394455275        1.91390386265510
C           -3.87132308231993        4.33293348221435        0.50567013045915
H           -4.70193535663924        0.65407852013624       -1.37922347167809
H           -6.81493840735027       -0.19371222229410       -1.96973081409805
H           -6.98506522972404       -1.67957940271023       -2.93476055092590
H           -5.53390201352000       -0.66745959754385       -3.12488242205848
H           -4.82361374222571       -3.94370659991640        2.44168970416165
H           -5.07747021061354       -5.23876451614755        1.24630713527260
H           -3.45043695522386       -4.55211273925623        1.47228937843198
H           -3.10641148652870       -2.32105231556810        2.20380189142238
H           -2.33617730023958       -0.02135031741823        2.10854214966536
H           -3.24695837111545        2.36242984903793       -1.83104418606794
H           -1.87542732868672        3.18799341638078       -1.10274570296824
H           -1.97787105730148        0.18801423040558       -1.67126417159436
H           -1.31838684867118        1.40688296278883       -2.76566968785869
H           -0.91671976489366        1.62551862461689        0.87552482143169
H            0.42045494800715        2.02958356038548       -1.03743023904098
H            2.03842649488149       -0.54737337094718        0.58408997057757
H            2.16162972001534        1.08772325842808       -0.08536367181915
H            2.56677594680803        0.09310870883078       -2.35785782294090
H            2.58694294009724       -1.51942159306559       -1.62648859003400
H            4.42374799217625        1.60666101062719       -2.10828753410980
H            7.34232442543106        3.07031642649257        1.29786562212354
H            7.93437118870222        2.71765405289395        0.90130534425192
H            8.55876917552310        1.92174104281246       -1.12937415215270
H            9.89480934074899        1.32127426322049        0.06873193886226
H            7.13087668734456       -3.60247832407458        1.86620204593423
H            5.51577551915847       -2.85935224793265        1.96274514487959
H            6.01129081318196       -3.74470301750186        0.48978684214476
H            4.35731714223521       -2.11095931513712        0.00032709412262
H           -0.30359313179860       -1.63173075318005       -1.73712979605118
H           -1.10549503627266       -1.25256826876880       -0.19830373382325
H            0.49430329596887       -2.00773703441202       -0.20331039811875
H           -4.94259890907255        2.63132648151127       -0.21513138635673
H           -4.14126499216765        2.72915604060328        2.71681993677978
H           -5.12326254961985        1.46402122447084        1.96671287498231
H           -5.73000080910218        3.11663213202185        2.05551593692807
H           -3.11433857792668        4.58088984429977        1.24317787943373
H           -3.52523507949941        4.63302711709882       -0.47987511769511
H           -4.76632846091348        4.90638029923000        0.73244159047053
H           -1.03762308802011        2.94472292688324        2.80354547260787
