25
 energy: 107.940434515975 xtb: 6.6.1 (8d0f1dd)
C            5.38620103490601        1.10811369288821        0.19125074342704
N            1.94253798574110        0.32901627305569        0.01302521509252
C            2.33719319967015       -0.96461442777134        0.00616795117788
N            1.22264297141705       -1.76053840642814       -0.01592820583627
C            0.12671105043553       -0.96728916986952       -0.03112226038684
C            0.56047659488139        0.35135620949896       -0.02366303313895
C           -0.33746735535596        1.45061015237650       -0.03073277169396
O           -0.05828530852622        2.63995571963937       -0.01578461861494
N           -1.68562371160391        1.00516006996348       -0.05597067326636
C           -2.70926837248189        2.03620161092125       -0.07754209901852
C           -2.14875260161047       -0.28061185327466       -0.06741602859496
O           -3.32835733521991       -0.55259027446155       -0.09055994178163
N           -1.18834322529767       -1.31059440457002       -0.05157960519152
C           -1.62505356883959       -2.68872132396361       -0.05344354292611
H            5.87040694480928        1.40935528586384        1.13571791475599
H            6.09732313308591        1.32451918613165       -0.62828619916128
H            2.55439529371361        1.11700998204825        0.01449967128312
H            3.34227625528727       -1.29524756551113        0.01522514194864
H           -2.21245720589754        3.00425623131757       -0.07025499399729
H           -3.31430447879150        1.92502139815316       -0.97519285338638
H           -3.35347953886187        1.93047937165333        0.79450193049198
H           -1.27880622810683       -3.20167863016528        0.84593905733982
H           -1.25881087711675       -3.20832400056535       -0.94116498460529
H           -2.71573460470193       -2.68171418310703       -0.06628724191992
H            1.24597909123145       -2.76872847553890       -0.02225861490136
