72
 energy: 33.650966405371 xtb: 6.6.1 (8d0f1dd)
N           -1.82880937173043        3.33593336201872        1.82376138754144
C           -2.02967581563929        2.67065673543995        0.77169540298438
C           -3.36360511927587        2.41816011656724        0.11562643696307
C           -3.71276657728190        0.93087771911387        0.18328657751904
C           -4.72957383190127        0.44209873726014       -0.63361549359865
C           -5.07464837147597       -0.89339235381248       -0.62801975587992
O           -6.05419287367884       -1.46497256107821       -1.38374369034619
C           -6.83598944741606       -0.63861352503911       -2.20519476245714
C           -4.37415850162100       -1.78222348096174        0.21181414483945
O           -4.77245607796038       -3.08216226752886        0.15013968374834
C           -4.17743455932126       -3.99797986129209        1.03280643333957
C           -3.37357043513666       -1.28975110169838        1.02590315688372
C           -3.04904286388073        0.05973526651094        1.01636883740980
C           -3.35991259276822        2.78231044156427       -1.34400835866678
C           -0.76865048565924        0.93981271662534       -1.80033408318761
C            0.43189690897263        0.86278644101217       -1.25248639078841
N            0.91658218432737       -0.09752449814031       -0.41600901725983
C            2.32862651652908       -0.12540776754682       -0.10019289806593
C            3.22972256103310       -0.81670947080313       -1.14762228951214
C            4.67236933525319       -0.70393089982907       -0.74208652311363
C            5.39076695498541        0.44589843347483       -1.01957108320061
C            6.71345735734714        0.57339806568339       -0.61490210991884
C            7.34431651520225       -0.45101887291934        0.07025627559406
O            8.63781993274853       -0.43419807625631        0.51188497192218
C            9.42196007629750        0.69766774025827        0.24143755166590
C            6.61995495697620       -1.62878329436635        0.35784343381170
O            7.31919912226433       -2.58562815854572        1.03282729952662
C            6.69331673658412       -3.80629052577511        1.33073288698870
C            5.30106208460359       -1.73557885182042       -0.04794683472776
C            0.18473994564691       -1.34016916176312       -0.28844947665446
C           -4.48945426934405        3.20144598619792        0.82647091291753
C           -4.68994620614485        2.69711833648868        2.25069761390363
C           -4.21389476835833        4.69970780209337        0.84836416965437
H           -5.24757801455601        1.12321989286909       -1.28427594354348
H           -7.35786315671837        0.13111346049893       -1.62588821165116
H           -7.56878705502566       -1.29838796873950       -2.66748479521660
H           -6.24154774784427       -0.16121458972206       -2.98947373962130
H           -4.31811553387521       -3.70601798348012        2.08008321799236
H           -4.67356660866782       -4.95060661914192        0.85535449402566
H           -3.10781603280454       -4.10810598090041        0.83225064285724
H           -2.83753178406968       -1.94197010733025        1.69455028050554
H           -2.27907445614566        0.42606053172878        1.67557460792830
H           -4.31542025843187        2.93096813194795       -1.84941774505785
H           -2.57359934386414        3.39355873142514       -1.74441556263362
H           -1.45894639918717        0.12863206582248       -1.72451795879761
H           -0.95201332484732        1.66303252135646       -2.58217294962345
H           -1.22297776826006        2.22120316636589        0.18383435225730
H            1.08450029024518        1.70266928668791       -1.41216957817479
H            2.44497046809443       -0.62745302759365        0.86927454421508
H            2.68194991329995        0.89901977964621        0.01958770071348
H            3.07770888722158       -0.32670903224871       -2.11227197352122
H            2.94715829747775       -1.86612489686742       -1.24071479887426
H            4.92165422292488        1.25651251781917       -1.55817092120545
H            7.24847292344321        1.48121756518737       -0.84574371426894
H            9.01136188639936        1.59293726614875        0.71893370308098
H            9.52430805782505        0.87545315575669       -0.83506324144797
H           10.40533954256827        0.48779738690149        0.66192522712075
H            7.44524839928528       -4.40964231341517        1.83978897796083
H            5.83671958677735       -3.66776493229810        1.99791617435469
H            6.36985445517028       -4.32982195337422        0.42487256930544
H            4.74145422285288       -2.63238029287218        0.17135056976166
H            0.08439508002328       -1.90427171105403       -1.22955073510105
H           -0.82036873898109       -1.12639911155437        0.07375171325755
H            0.69163277784284       -1.96765741696561        0.43976142693360
H           -5.39669566952135        3.00464470132193        0.25260276309620
H           -3.78257647763210        2.84468035646316        2.83105689637547
H           -4.95308853569006        1.64388552129386        2.26156733636594
H           -5.49366867910333        3.25900055855931        2.71180680229180
H           -3.35426129118335        4.90402046812575        1.48020808103365
H           -4.02330480473382        5.09646166002972       -0.14538395697891
H           -5.08224272665488        5.20436146743113        1.26035915714257
H           -0.85457953072094        3.47892909972907        2.08685799786720
