72
 energy: 1.504418751831 xtb: 6.6.1 (8d0f1dd)
N           -1.60089333105153        2.95211392000085        2.17200150135767
C           -1.69252799663053        2.29170331812508        1.10501641391908
C           -2.89224288450039        2.14645453377220        0.21808968061087
C           -3.41562272046582        0.72189467868635        0.29632627513091
C           -4.40978138967724        0.30130298511680       -0.58886665818727
C           -4.90712984756690       -0.98636734613498       -0.55428690778685
O           -5.87662692648319       -1.48599624856651       -1.37261974782937
C           -6.50687486013396       -0.61467028805063       -2.27492191389584
C           -4.39741854589419       -1.90302381745313        0.38842176758152
O           -4.93927949369129       -3.15430033115590        0.33828597069617
C           -4.54128452402525       -4.08032477021806        1.31581950475559
C           -3.42004620212162       -1.48044779051386        1.26726357463009
C           -2.93842579023668       -0.17929850042334        1.22500604140639
C           -2.40128947540854        2.35514813634055       -1.24635852614183
C           -1.28714175171266        1.27246776714058       -1.70094276437984
C            0.06091073976491        1.18126089119153       -0.98767414489316
N            0.67746293801645       -0.03327231560911       -0.53911201591904
C            2.06659523280529       -0.06058352803976       -0.16075687998601
C            3.00767297485138       -0.61091655270696       -1.25784310512380
C            4.43897487167746       -0.50137027447164       -0.82762913709764
C            5.15693825409578        0.66099756536028       -1.04252181457169
C            6.46932709799928        0.77706439895790       -0.60430305450764
C            7.08535722442366       -0.26762532771404        0.06174843680459
O            8.36682481271591       -0.26359903047119        0.52845457193607
C            9.15885735010768        0.87274635406796        0.30070376280921
C            6.35911233386086       -1.45566882145732        0.29706684465398
O            7.04349337751515       -2.43161158986443        0.95899855925117
C            6.41003953801347       -3.66146998716824        1.19739686810168
C            5.05255301258839       -1.55228107427321       -0.14503942207034
C            0.00009919567480       -1.30915830247489       -0.54424668630217
C           -4.03204194483443        3.10999844671278        0.62245950661372
C           -4.55313160325486        2.75528927642670        2.01453909666093
C           -3.60193593736781        4.57338286525127        0.61492659516712
H           -4.80290751606252        0.99620008538453       -1.31417306188233
H           -6.97793871571729        0.22954341017875       -1.75930291838527
H           -7.27498718447579       -1.20851740098899       -2.76856922173586
H           -5.80890974453371       -0.23475561930522       -3.02777830832493
H           -4.74210372482240       -3.71336028363757        2.32874556193224
H           -5.13258611825769       -4.97532267256098        1.13051043358072
H           -3.47839441290378       -4.32754183212284        1.22920573156046
H           -3.00989788063583       -2.15625732336340        1.99967391159353
H           -2.18097359993921        0.12283622415435        1.93075169826879
H           -3.30459797137680        2.41736501896919       -1.89527724579932
H           -1.90099953572808        3.32304964407822       -1.31596785010131
H           -1.71545203730574        0.26538127565336       -1.65908091988991
H           -1.09607705000828        1.46152336411123       -2.76774505953435
H           -0.84564891330051        1.77195337091167        0.65034594254198
H            0.76090265543579        1.98122547440325       -1.11161156636608
H            2.19615534795589       -0.67336023906448        0.74381486062003
H            2.39006275373107        0.95167190287247        0.08143284123261
H            2.84270531004650       -0.02936701295603       -2.16265851413489
H            2.75239417740446       -1.65285614138051       -1.45911790943969
H            4.69705857496577        1.48787149533873       -1.56206577521550
H            7.00798636986281        1.69190756208863       -0.79412918771273
H            8.74128012056578        1.75745076674260        0.79150424624764
H            9.28195594825961        1.07450386632627       -0.76933335180769
H           10.13223486685022        0.64904177912965        0.73576576963635
H            7.14833996972995       -4.28482418221114        1.70151818741531
H            5.53718631203084       -3.54591523739702        1.84782185426622
H            6.10803031803222       -4.14962845743176        0.26494135544546
H            4.48974122616547       -2.45599954106059        0.03252087099369
H           -0.14790100027948       -1.71078208423677       -1.55695496841528
H           -0.97545743332216       -1.21952089946187       -0.06160697041059
H            0.58392955022069       -2.04214682672974        0.01923190587730
H           -4.84554929462480        2.98111193298721       -0.09951722747892
H           -3.75811543964261        2.87535387312600        2.74584669021133
H           -4.90155896770221        1.72685030145217        2.04859623125994
H           -5.37788783360035        3.41525507377259        2.27287741665737
H           -2.79256645063271        4.71785966530754        1.32216198845701
H           -3.28390541486010        4.89044389655880       -0.37303075268170
H           -4.43697160367925        5.20015270425799        0.91919556460001
H           -0.67397693794149        2.94978904737298        2.58473382451878
