72
 energy: 28.962879571287 xtb: 6.6.1 (8d0f1dd)
N           -1.89855431277441        3.50070104957724        1.63969423036336
C           -2.15216352511782        2.81255402791957        0.61317212977623
C           -3.55409914007391        2.53587412041988        0.09839151213994
C           -3.82272255885106        1.02288861741674        0.13076571582794
C           -4.85222201283923        0.50446022766819       -0.65498686264184
C           -5.13510028819355       -0.84887359242144       -0.65947854189983
O           -6.11725349628483       -1.45256370746968       -1.38611031741128
C           -6.96640211490159       -0.65622383451829       -2.17136831634271
C           -4.36930311102000       -1.72295429090293        0.14405888481062
O           -4.70459568730839       -3.04542214647187        0.06524697630596
C           -4.03338235666824       -3.95261393585688        0.90641407028900
C           -3.35846140668587       -1.20124385467063        0.92835743732589
C           -3.09215669304515        0.16366026428838        0.92520524505437
C           -3.67980628830716        2.96521718014195       -1.32716032792095
C           -0.58335792046695        0.81883832966521       -1.87251985706759
C            0.61032624946661        0.76803262351627       -1.30746048564596
N            1.03209986822706       -0.13397659556573       -0.36890842005700
C            2.43373973322752       -0.17588079673086       -0.05076532291864
C            3.31451315419000       -0.90218424290657       -1.08142432229615
C            4.75865081098769       -0.78480901536711       -0.68339429716736
C            5.47733718575059        0.35578498700488       -0.99361942588509
C            6.80742697671533        0.48462911583287       -0.61755033747305
C            7.44529648806563       -0.52902754360891        0.07310280578094
O            8.74214247214989       -0.51424995021218        0.48829761580415
C            9.52761348686637        0.62004713568712        0.21702690110704
C            6.72311234903115       -1.70413388300395        0.38283536573473
O            7.43519727105656       -2.65337165049659        1.05214596593335
C            6.81195132576471       -3.86852664413265        1.38000748148361
C            5.39704003893972       -1.81177930670997        0.00642967415916
C            0.26379453798071       -1.34074656933199       -0.19037334910695
C           -4.65655293325356        3.23461394198008        0.92936399934525
C           -4.73151472755433        2.67944673036283        2.35171626205720
C           -4.45447936001597        4.74983364931693        0.96675283230345
H           -5.42691340443031        1.17448715547754       -1.27180397047906
H           -7.50863012822001        0.07719897783826       -1.56401956877764
H           -7.67836464437956       -1.35101988336701       -2.61474124758106
H           -6.42471152317172       -0.13708364838487       -2.97046542910237
H           -4.14749155670792       -3.69517324247117        1.96660582187183
H           -4.49415435892472       -4.92286193842259        0.72140355674525
H           -2.96689837403588       -4.00722983789471        0.66472618064314
H           -2.77015050760747       -1.84657425048671        1.56409279217662
H           -2.31383609877397        0.55287812258766        1.56387965320300
H           -4.62268124884602        3.28308025417219       -1.74551488118073
H           -2.81896413080575        3.22144388693258       -1.89632028671044
H           -1.31638984215944        0.05048464345778       -1.74684152620668
H           -0.81381637039181        1.63756993756488       -2.52482602576412
H           -1.39381669546646        2.35667049260347       -0.03868082489170
H            1.29564066806578        1.58250804311498       -1.46671378620312
H            2.54960076196862       -0.66529429338537        0.92336231054535
H            2.79444879332413        0.85227874864750        0.04165720263333
H            3.16900340231256       -0.45191164795669       -2.07034525985987
H            3.01750630639858       -1.95056197064509       -1.13410621775534
H            5.01325976185039        1.16168701668053       -1.54452076548639
H            7.34022725393252        1.38631114735756       -0.87503682109068
H            9.12339374167294        1.51887673343446        0.69499485801042
H            9.62713656953383        0.79424404941902       -0.85949324140926
H           10.50831581470851        0.40125422005010        0.63759087908883
H            7.57508080590558       -4.45638686966143        1.88868308798792
H            5.96284983361108       -3.72090076225254        2.05595025458663
H            6.47888085715728       -4.40728174860752        0.48651234165421
H            4.84190579529899       -2.70802597612229        0.23582274709546
H            0.20689168170392       -1.96913437096054       -1.09573572068547
H           -0.75464366279373       -1.09860865711537        0.11086848642713
H            0.73628309773303       -1.90541527346095        0.60590773472395
H           -5.60311042443414        3.01392632691712        0.42007114535672
H           -3.78855997282801        2.84167320946630        2.86490396042998
H           -4.95523217209210        1.61416810390924        2.34984996151807
H           -5.51657809262363        3.19653142591354        2.89875158845679
H           -3.57645820076059        4.98759189706014        1.56210797473860
H           -4.32707316128237        5.17684399271182       -0.02867484558382
H           -5.32805952316422        5.19853058912235        1.43061992286222
H           -0.90179935654367        3.63514367631194        1.83715020289100
