72
 energy: 23.117260725710 xtb: 6.6.1 (8d0f1dd)
N           -1.67489569475543        3.07662456925872        2.10603825492736
C           -1.78751934436672        2.40238359511381        1.04714583829475
C           -3.00510586552264        2.21459096961369        0.19463219272674
C           -3.49133741879866        0.77743984266465        0.27117793558177
C           -4.49057417482515        0.34119179720810       -0.59973895434181
C           -4.95025121958351       -0.96048480394252       -0.57328592347323
O           -5.92110364113292       -1.48074190226381       -1.37825537227897
C           -6.58964748148891       -0.61799420944704       -2.26054783998122
C           -4.39336822172969       -1.87368538844285        0.34422870096248
O           -4.89694899618371       -3.14167434728069        0.28631003327525
C           -4.44811521974824       -4.06371599356677        1.24628533120665
C           -3.41156833919874       -1.43409773395261        1.20921088934644
C           -2.97223486978922       -0.11856170061033        1.17912135011795
C           -2.57374020746745        2.41213582160190       -1.28285613622058
C           -1.22663990979673        1.24391026006059       -1.70562973518246
C            0.12615143205713        1.13036633516801       -1.04332762879993
N            0.74244829009236       -0.05867673488279       -0.52756170622911
C            2.13283667393307       -0.08266338722499       -0.15530041248224
C            3.06667307829335       -0.66483904956045       -1.23888351098647
C            4.49998482446957       -0.55326906793422       -0.81356849286342
C            5.21659257403373        0.60802937032299       -1.03974600860619
C            6.53060163349786        0.72757782795676       -0.60623321618189
C            7.15037593988646       -0.31222914939982        0.06461282235391
O            8.43427232030904       -0.30398819880307        0.52681860626856
C            9.22468230711825        0.83095504224159        0.28655899654669
C            6.42496757237187       -1.49820288794263        0.31144130490132
O            7.11186411413351       -2.46889995870702        0.97904045304911
C            6.48047944485782       -3.69703461499819        1.23180962749265
C            5.11638254698452       -1.59807435903923       -0.12546670780746
C            0.04471179211968       -1.32356166666287       -0.48218630090577
C           -4.15309820862562        3.13542937566625        0.66117770491794
C           -4.59424132801272        2.73958717553564        2.07102229293022
C           -3.75793591999082        4.60798300778694        0.66667605553013
H           -4.91325467596077        1.03381269265371       -1.31041505954669
H           -7.07373383339089        0.20847441973244       -1.72810251891462
H           -7.35022225217136       -1.22666515317213       -2.74801886203053
H           -5.91551011795041       -0.21123001747195       -3.02071615399915
H           -4.63469938109312       -3.71239860969059        2.26795846415514
H           -5.01316398351935       -4.97719331368089        1.06847799183866
H           -3.38023710447140       -4.27473783151582        1.13274126752221
H           -2.96315723068237       -2.10709468187888        1.92124421448685
H           -2.20862552597882        0.19948217270576        1.87078242793196
H           -3.51502133479465        2.47511421889509       -1.90898862511828
H           -2.06787447539601        3.36697568721314       -1.41119118417318
H           -1.65612928952464        0.25601319781615       -1.69078678897536
H           -1.13548404917200        1.53275177457905       -2.76577659282670
H           -0.94905412332098        1.89912968574032        0.57807034240906
H            0.83469875169703        1.92500789967972       -1.23195422166070
H            2.26553339919888       -0.67304517556190        0.76442627406134
H            2.46102385911511        0.93402867294599        0.05861431110115
H            2.90250519292891       -0.10351273202568       -2.15662908794145
H            2.80447945392455       -1.71009741085989       -1.41238799686154
H            4.75367046848837        1.43112442685116       -1.56299963940309
H            7.06895615101880        1.64121079360312       -0.80275600648470
H            8.80788222446714        1.71802344524925        0.77318890666081
H            9.34184491255917        1.02550813584317       -0.78557389079524
H           10.20185194881344        0.61407472051104        0.71738309545743
H            7.22035667823634       -4.31746284865195        1.73801449305797
H            5.61150017509606       -3.57531435375079        1.88587999821389
H            6.17372693157561       -4.19368173824134        0.30551546594483
H            4.55400494585464       -2.49982203235354        0.06322061280148
H           -0.09142010349315       -1.77236712497963       -1.47895457564098
H           -0.93892542772015       -1.19796619014043       -0.02447492497671
H            0.60641222306675       -2.03611531889746        0.12721931005946
H           -4.99444593555729        2.99443233197791       -0.02562451368723
H           -3.76886713994838        2.85979422956337        2.76876606759338
H           -4.91906446080320        1.70369857513146        2.10114074655232
H           -5.41633253721278        3.37837958691140        2.38510144092290
H           -2.93483078678321        4.75586199044232        1.35732578727307
H           -3.46978831524486        4.94785351138092       -0.32284502567068
H           -4.59898934190430        5.20872867422973        1.00351057727754
H           -0.72451239675261        3.09366495011270        2.46603460343713
