72
 energy: -2.408522506927 xtb: 6.6.1 (8d0f1dd)
N           -1.57330058812500        2.90890756062276        2.19077380931919
C           -1.65826136158958        2.25545686957123        1.11972788770816
C           -2.85516035995886        2.12473842323099        0.22544336950233
C           -3.39025088357114        0.70368632365408        0.30428878781352
C           -4.38272081664569        0.28775021464268       -0.58533825427645
C           -4.89228252036787       -0.99522077487862       -0.54832419710769
O           -5.86186312760937       -1.48715663379073       -1.37072523707458
C           -6.47892999601892       -0.61302541836512       -2.27963138504026
C           -4.39788986822066       -1.91298475206327        0.40231055244462
O           -4.95276726600229       -3.15822375414349        0.35591171200480
C           -4.57217336108996       -4.08566492695736        1.33896009976734
C           -3.42152278528759       -1.49607280318524        1.28516157736594
C           -2.92611921020947       -0.19962957236080        1.23893518118287
C           -2.34979030343573        2.34198608112009       -1.23192814204688
C           -1.28444725482990        1.25992309906548       -1.70145559932738
C            0.04218939564320        1.17184269397275       -0.96295129628992
N            0.66169656665761       -0.03489579537682       -0.54340042849382
C            2.04755837934340       -0.05482102488413       -0.16047158805991
C            2.98866346576604       -0.59326128518474       -1.26359523846731
C            4.41890043977684       -0.48439481313997       -0.83205380198312
C            5.13667079924818        0.67856675437335       -1.04311977178190
C            6.44840776984422        0.79365804751847       -0.60346297706767
C            7.06323463089674       -0.25250110763255        0.06117234939976
O            8.34396676468138       -0.24993601476997        0.52891593089832
C            9.13663312886027        0.88690585551450        0.30534757083111
C            6.33676168625716       -1.44142529782740        0.29300228616423
O            7.02049582279912       -2.41907736097113        0.95258387567489
C            6.38618155696828       -3.64944491552020        1.18614966625922
C            5.03094852872529       -1.53719850219155       -0.15060762968580
C           -0.01365268383621       -1.30841381148212       -0.56417642538639
C           -3.99191682045213        3.10172678929791        0.61170985412180
C           -4.53884270229217        2.76062378632963        1.99677645601268
C           -3.54991116477135        4.56180696813773        0.59842016953648
H           -4.76651131863166        0.98348871201639       -1.31464234828253
H           -6.94532450097733        0.23710042563541       -1.76967954123121
H           -7.24954761679230       -1.20193710658170       -2.77522048705263
H           -5.77305384982896       -0.24248909951062       -3.02997075729000
H           -4.77752404103400       -3.71374509518498        2.34899569095606
H           -5.17253344677603       -4.97406949118756        1.15096786377234
H           -3.51145515354788       -4.34552734834384        1.26128479572316
H           -3.02502803842091       -2.17244899754939        2.02466537447620
H           -2.17151994390541        0.09718737712897        1.95011511831666
H           -3.23600781784034        2.41172113155216       -1.89106908578852
H           -1.83979110794907        3.30484833211170       -1.28596185551012
H           -1.73627851196210        0.26091450007930       -1.65437376128882
H           -1.07230248202699        1.43787429337731       -2.76306760083955
H           -0.80834769015294        1.73435454807075        0.65917867512509
H            0.72923264336824        1.98840080296885       -1.06568221711800
H            2.17508220807030       -0.67293422641507        0.73962638951965
H            2.36628021973593        0.95759199136149        0.08899720529747
H            2.82278719060744       -0.00446868814672       -2.16398202471528
H            2.73439145476112       -1.63350197726273       -1.47405160232129
H            4.67787367568837        1.50649622867128       -1.56198201186619
H            6.98686210737304        1.70882937639043       -0.79205985721581
H            8.71901044453078        1.77098162000459        0.79751797338413
H            9.26176297761000        1.09104914643550       -0.76393555295079
H           10.10854241998340        0.66039011415290        0.74192065440113
H            7.12416211010379       -4.27338655808722        1.68959347282445
H            5.51194536493672       -3.53592404398648        1.83531596541940
H            6.08570507753986       -4.13479649641357        0.25164917458849
H            4.46794799925007       -2.44161756502267        0.02286611558296
H           -0.16730158255793       -1.68988765064739       -1.58248008817118
H           -0.98635722713341       -1.22585145005356       -0.07420419848684
H            0.57680119841902       -2.04670512135884       -0.01666806240555
H           -4.79581167062308        2.97602011029286       -0.12183324461486
H           -3.75470791180430        2.88111298612652        2.73916718623326
H           -4.89501409516223        1.73461316105661        2.03160380388262
H           -5.36402355955045        3.42701463768411        2.23696911972814
H           -2.74408146016148        4.70662829253534        1.30983167296563
H           -3.22285474078067        4.87056047424590       -0.38944136851677
H           -4.38256353203141        5.19709788825078        0.89185314705606
H           -0.65491162627505        2.90255625075013        2.62268392274749
