72
 energy: 31.876120395116 xtb: 6.6.1 (8d0f1dd)
N           -1.83716380806463        3.41043118505071        1.74122352260147
C           -2.07203410536762        2.73117060150414        0.70559982360820
C           -3.43838712257147        2.46567951292178        0.10626681206769
C           -3.75930626760337        0.96766685334174        0.16619705312013
C           -4.77908792496306        0.46740869504087       -0.64124859986266
C           -5.09960905020134       -0.87460966306612       -0.64009153783290
O           -6.07754467470483       -1.45587280688207       -1.38457249111720
C           -6.88767430966188       -0.64388599871969       -2.19155066085231
C           -4.37626136667770       -1.75738256911836        0.18647142518279
O           -4.74673301770875       -3.06463967677560        0.11767451188319
C           -4.12186411860549       -3.97859076952569        0.98181423383355
C           -3.37017604896480       -1.25443893213116        0.98822058914501
C           -3.06695418127735        0.10143906467323        0.98199870441532
C           -3.49477109224364        2.84683644610133       -1.34266706431468
C           -0.69780293461923        0.89718353446546       -1.82703800254064
C            0.50328339012749        0.82647580748654       -1.29043141450078
N            0.95394611123978       -0.10034939433534       -0.38984443925674
C            2.36799359241922       -0.13909094045902       -0.08054167933900
C            3.25973857869005       -0.84974627605243       -1.11894956594501
C            4.70465080261532       -0.73414478963592       -0.71570813698862
C            5.42364902434459        0.41153118482982       -1.00672639957457
C            6.75052656114825        0.53887136882086       -0.61748444923735
C            7.38281530062648       -0.48154998417176        0.06977684984847
O            8.67588495789993       -0.46645491493462        0.49994444705105
C            9.46294442802123        0.66616716921255        0.23111466830186
C            6.65893929569350       -1.65878092078338        0.36764404458592
O            7.36554265496827       -2.61335452019792        1.03627481701868
C            6.74064420590383       -3.83106284505454        1.35012377994082
C            5.33626209583655       -1.76511864278745       -0.02316913214021
C            0.21112738961769       -1.33036723710891       -0.25034980598297
C           -4.55802954500958        3.21436285196153        0.86441814963779
C           -4.70360993515054        2.68914588928547        2.29135315027512
C           -4.31064977475949        4.71792551180270        0.89433350516618
H           -5.32034463731831        1.14285450150941       -1.27872088440824
H           -7.41839258301519        0.10998614225369       -1.60134705435134
H           -7.61136403988924       -1.31955972343251       -2.64415351630011
H           -6.31446103608258       -0.15161334582576       -2.98267541584934
H           -4.25136369879379       -3.70294290298978        2.03437914375664
H           -4.60404346676604       -4.93743378653499        0.80108519248594
H           -3.05536265491953       -4.06548887481656        0.76137377368022
H           -2.80817541774859       -1.90639523514217        1.63959339277110
H           -2.29227965611755        0.47716350719484        1.63130589698350
H           -4.44897345736819        3.06353343252275       -1.81514003031656
H           -2.66625357445399        3.33249085524499       -1.80351600111141
H           -1.40261755065571        0.10249307321607       -1.73111802210055
H           -0.90687457671198        1.66370011959661       -2.55165912893715
H           -1.28824668626265        2.28215433099920        0.09715875589863
H            1.16845970696085        1.66740234102176       -1.44018761803787
H            2.48476450975810       -0.63609771453870        0.89177514064274
H            2.72976510551437        0.88778641756307        0.01902592363460
H            3.11503103831394       -0.37740590730178       -2.09599665055210
H            2.97541149860504       -1.89916350162109       -1.19668536140602
H            4.95867776975489        1.21973459175018       -1.55302082770590
H            7.28452232994200        1.44362563617842       -0.86121606753251
H            9.05612343316806        1.56332804260427        0.70925975706779
H            9.56575329435971        0.84315458855010       -0.84477873920505
H           10.44444908324689        0.45097159740414        0.65216375925688
H            7.49781521679968       -4.42656003366420        1.85966399669996
H            5.88738293593647       -3.68827745654726        2.02133247560790
H            6.41300318246381       -4.36179556840405        0.45014952477864
H            4.78000213618890       -2.66304649946097        0.19798929258559
H            0.13003753106363       -1.93604437145360       -1.17266805114050
H           -0.80013548838249       -1.10747338064106        0.09168267438011
H            0.70565759613613       -1.93033534182531        0.50562899662964
H           -5.48241987567657        3.00499463072601        0.31768542493973
H           -3.77989010900626        2.84207167088326        2.84730578048267
H           -4.95089427877905        1.63081972677736        2.29768121472715
H           -5.50071132314025        3.23266927839710        2.78786747364852
H           -3.44199888203631        4.93964190007708        1.50981092511888
H           -4.14627961339864        5.12900388707756       -0.09962090234948
H           -5.18154085107908        5.19677490112706        1.32967526845295
H           -0.86156679015465        3.57483266964913        1.99699736738876
