72
 energy: 40.970778178647 xtb: 6.6.1 (8d0f1dd)
N           -1.72341942151849        3.15624048289336        2.05178886360674
C           -1.85178683644880        2.47830389011374        0.99407271721148
C           -3.09170864526616        2.26726474196225        0.17653449872093
C           -3.54098415151806        0.81568148772696        0.25137425208087
C           -4.54392887256106        0.36588252615281       -0.60730413936584
C           -4.97809025762058       -0.94423466358262       -0.58521198522039
O           -5.95134685883611       -1.47744110155692       -1.38006712689898
C           -6.64495590352433       -0.62123283947639       -2.24920429742997
C           -4.38938814360807       -1.85354314537037        0.31512691590359
O           -4.86852936239108       -3.13219575427710        0.25331903665515
C           -4.38659240581938       -4.05170997399453        1.19984248222797
C           -3.40383813008421       -1.40173055730785        1.16929157311204
C           -2.99228345649976       -0.07671193247890        1.14516903038209
C           -2.81128916645857        2.53411220858965       -1.29512207296206
C           -1.03910985486142        1.11133124917266       -1.73767596398123
C            0.21112339675511        1.03187119910300       -1.11760224301385
N            0.80002373417502       -0.08466174652912       -0.51625569997202
C            2.18699874431623       -0.09988923581315       -0.14456551382702
C            3.10743551196305       -0.70126910755686       -1.22397196386371
C            4.54224071125158       -0.58864043730787       -0.80220030313580
C            5.25668964477340        0.57184270827979       -1.03689726553239
C            6.57211357906193        0.69365835292165       -0.60762607504555
C            7.19434083685365       -0.34287401794915        0.06637616929885
O            8.47932797714669       -0.33211884232448        0.52448185224008
C            9.26913860130358        0.80191531409206        0.27658639825801
C            6.46947065925936       -1.52751990247427        0.32191278685542
O            7.15796648723736       -2.49455317035444        0.99187519068335
C            6.52771654476689       -3.72144947799345        1.25451749632799
C            5.15910098883911       -1.62935546949513       -0.11017250648279
C            0.07841209328440       -1.33684179003649       -0.43851584516742
C           -4.24006247117036        3.15403020675497        0.69809917256788
C           -4.62478418243170        2.73040299401666        2.11211066858470
C           -3.86365415224301        4.63129202171509        0.70360995039960
H           -4.98621448805670        1.05642657309607       -1.30698493354750
H           -7.13775608418159        0.19326907665963       -1.70616466809594
H           -7.40007736330605       -1.24062174925487       -2.73190264440281
H           -5.98750976136248       -0.19734225477177       -3.01437348004149
H           -4.56339850996873       -3.71227209573155        2.22766558415016
H           -4.93449983839187       -4.97640121643175        1.02510818419370
H           -3.31645682824847       -4.23918824616543        1.06790436482171
H           -2.93321598824622       -2.07181800867012        1.87042866256475
H           -2.22584616222497        0.25087239062551        1.82961623821404
H           -3.73731303482110        2.56881688784720       -1.90272708711835
H           -2.18784052759003        3.39612282958647       -1.48621304205551
H           -1.63281230429403        0.22159763521572       -1.70845894830008
H           -1.11623506210670        1.59772926776117       -2.71528397696544
H           -1.02020855703118        1.98519784882877        0.51167580569353
H            0.88794893005237        1.87218384586885       -1.30044995091423
H            2.31841824523032       -0.67022463959617        0.78506516485294
H            2.51179894350283        0.92278871428413        0.04417541986735
H            2.94358258834364       -0.15390785973237       -2.15105884565907
H            2.83953772552395       -1.74782413139556       -1.37962080961643
H            4.79188944316711        1.39230276572412       -1.56293900847208
H            7.10976154945352        1.60628848796498       -0.81015466457688
H            8.85347176906458        1.69060465320150        0.76091403748742
H            9.38247328787886        0.99208824513306       -0.79673609833564
H           10.24833316876495        0.58797402686662        0.70461660902637
H            7.26929036259679       -4.33926217890389        1.76169663874750
H            5.66157298699832       -3.59552619292880        1.91132143065900
H            6.21738625476018       -4.22365378853311        0.33249055529732
H            4.59678173984773       -2.52961632695922        0.08569967834824
H           -0.05155368873293       -1.81021928323438       -1.42514567094628
H           -0.91024999749176       -1.18276984717851       -0.00146990348487
H            0.62415417589326       -2.03260478620908        0.20031255128824
H           -5.09324229176787        3.00194349350701        0.02874814052123
H           -3.77917126979689        2.85312631794253        2.78522883151855
H           -4.93169855407004        1.68899485080717        2.13540122688779
H           -5.44478050536589        3.35332300274881        2.45981142821748
H           -3.03140006722249        4.78575708337336        1.38200091994329
H           -3.59422798118522        4.98280783751226       -0.28773118618554
H           -4.70938547435298        5.21400993923459        1.05768383304487
H           -0.76176970420015        3.18300309418033        2.38623881841809
