72
 energy: 32.689695106405 xtb: 6.6.1 (8d0f1dd)
N           -1.83739740798223        3.37600090064296        1.78280056760681
C           -2.05401206512600        2.70041139327128        0.74004684065584
C           -3.40176898811363        2.44123592601883        0.10970036581845
C           -3.73623744852077        0.94897178030779        0.17483484566211
C           -4.75437208108614        0.45417882225826       -0.63686086365357
C           -5.08624919889161       -0.88393158991937       -0.63308601621378
O           -6.06285692813026       -1.45937128398029       -1.38343504615384
C           -6.86051229670988       -0.64153877096163       -2.19755579352580
C           -4.37426313728973       -1.76986761917999        0.19920965213565
O           -4.76019536478054       -3.07273415682915        0.13322107282345
C           -4.15096918942792       -3.98708182600119        1.00687574709324
C           -3.37133451746959       -1.27235051521147        1.00734437191579
C           -3.05829792496780        0.08048517329832        0.99935537427028
C           -3.42728224373880        2.81338756598121       -1.34563555903591
C           -0.73311293553843        0.91941956728425       -1.81423781574606
C            0.46696208800387        0.84531781120030       -1.27285244065597
N            0.93205106049153       -0.09635531415028       -0.39813074472314
C            2.34708803403452       -0.13156962946080       -0.09002615996707
C            3.24346260270706       -0.83315686684592       -1.13339739288456
C            4.68681911616192       -0.71812854583439       -0.72675004604383
C            5.40602461531370        0.42905740885969       -1.01167442382038
C            6.73152620746576        0.55599595652804       -0.61710675565209
C            7.36294902724958       -0.46612676339538        0.06939456313888
O            8.65586143687513       -0.44998927623954        0.50532010697833
C            9.44184867075014        0.68213511350051        0.23547006077913
C            6.63823621817516       -1.64387283029633        0.36264450199575
O            7.34214035692458       -2.60004557066257        1.03215143273354
C            6.71655211027517       -3.81883800411745        1.33989820972098
C            5.31667262582742       -1.74988535418842       -0.03320309976334
C            0.19693144787231       -1.33347527434098       -0.26846008036334
C           -4.52439213401053        3.20737509462081        0.84505639949634
C           -4.69677843889872        2.69321017938975        2.27128804545674
C           -4.26144855905433        4.70767454798176        0.87187930902480
H           -5.28473998534130        1.13114106494848       -1.28110848565421
H           -7.38738498186020        0.12003369977248       -1.61381263905928
H           -7.58828889002043       -1.30999033257595       -2.65404342103591
H           -6.27713660192252       -0.15851285492131       -2.98609186226676
H           -4.28572568234181       -3.70342458998056        2.05653195320592
H           -4.64078489426579       -4.94187253249112        0.82744718959742
H           -3.08404813446490       -4.08563445356519        0.79494569085626
H           -2.82192255546006       -1.92428481804524        1.66717107624966
H           -2.28580653853730        0.45139667068726        1.65332730670605
H           -4.38449207155241        2.99472418752201       -1.83242039547858
H           -2.62081013377100        3.36974715796446       -1.77543625149558
H           -1.43247118354108        0.11827438583824       -1.72617008015406
H           -0.93063961448666        1.66415738495795       -2.56857447947168
H           -1.25610919509803        2.25174847192152        0.14227210295727
H            1.12539060619910        1.68926728494855       -1.41961463814627
H            2.46576199146911       -0.63048568003214        0.88122886916205
H            2.70589253024480        0.89382808051087        0.01791498538816
H            3.09698372404440       -0.35307456795718       -2.10530950960273
H            2.96143786258118       -1.88267112574639       -1.21867159861914
H            4.94013121959666        1.23869651167643       -1.55489573366792
H            7.26536218125051        1.46218937471455       -0.85595621695686
H            9.03352782617358        1.57852033706755        0.71338932240211
H            9.54512704717180        0.85948179563444       -0.84045967324801
H           10.42344088883194        0.46817875168950        0.65683533556989
H            7.47173059123537       -4.41694108896062        1.84949836881619
H            5.86170615801273       -3.67781521352526        2.00927703505381
H            6.39103405279392       -4.34646203483554        0.43734304320896
H            4.75970115408529       -2.64810934081614        0.18579725899589
H            0.10848411081125       -1.91955079442284       -1.20044252215157
H           -0.81192871724577       -1.11415414049798        0.07983051491333
H            0.69641365764830       -1.94968459696264        0.47480530976210
H           -5.44133855561165        3.00546115461976        0.28570077069134
H           -3.78024120979677        2.84390645934742        2.83798914832593
H           -4.95208523331230        1.63762577346458        2.28083067812789
H           -5.49695712792773        3.24633711185028        2.75083704401374
H           -3.39632031216182        4.92362380856692        1.49416971102297
H           -4.08464159387670        5.11102144612655       -0.12215907972674
H           -5.13138646601532        5.19920986915046        1.29497846738922
H           -0.86249139758466        3.53212190901867        2.04271590089041
