72
 energy: -5.130012294805 xtb: 6.6.1 (8d0f1dd)
N           -1.54729285419718        2.86415218229867        2.20866649415125
C           -1.62318070043800        2.21828493439023        1.13299952541328
C           -2.81787914649887        2.10205830872416        0.23282236754906
C           -3.36555928291090        0.68509052994656        0.31249354777374
C           -4.35630961091231        0.27400687722544       -0.58166012418379
C           -4.87792506788070       -1.00411195876663       -0.54217608544828
O           -5.84744453406214       -1.48830810340679       -1.36876461497958
C           -6.45140429665029       -0.61176672332903       -2.28451046740331
C           -4.39845231189477       -1.92274330677560        0.41624313629322
O           -4.96628140731650       -3.16167871288508        0.37361759314697
C           -4.60297057563526       -4.09069270835858        1.36168820562099
C           -3.42294315051516       -1.51157374201265        1.30301837496971
C           -2.91388514535420       -0.21999701525359        1.25271872645709
C           -2.29617980982353        2.32493232514396       -1.21599010250093
C           -1.27488181025761        1.23016304410321       -1.69477828072273
C            0.02780703514378        1.15780744815334       -0.93847914363675
N            0.65006493718790       -0.03933330579399       -0.55004148255128
C            2.03006440105435       -0.04865823582863       -0.15986395256558
C            2.97014778483763       -0.57552589051593       -1.26865788622328
C            4.39882121559914       -0.46718403296274       -0.83505683751237
C            5.11646244122387        0.69615704556329       -1.04342680776541
C            6.42768630774535        0.81006779015134       -0.60293737729004
C            7.04108408057637       -0.23761403879067        0.06038226234278
O            8.32097055408913       -0.23651915743441        0.52929989606133
C            9.11414347107970        0.90092526810522        0.31018436078788
C            6.31442247895126       -1.42741541609925        0.28890568308623
O            6.99772948269903       -2.40668740537268        0.94583424318403
C            6.36292541798489       -3.63762541049505        1.17495149690276
C            5.00916039373478       -1.52224397681633       -0.15541205369364
C           -0.02689353918239       -1.30817424541714       -0.58391417436614
C           -3.95080612112200        3.09321934440983        0.60137804499797
C           -4.52421668191827        2.76592045455649        1.97875879053973
C           -3.49737140908960        4.55023062805461        0.58211113086927
H           -4.73018605373478        0.97037184686969       -1.31535216277044
H           -6.91332818920268        0.24427002677304       -1.78057170506490
H           -7.22451257990123       -1.19612580092478       -2.78151474273581
H           -5.73810661418710       -0.25082768447021       -3.03275901934150
H           -4.81287921622863       -3.71418328454486        2.36891859815131
H           -5.21256032346237       -4.97217966491928        1.17058627433923
H           -3.54461248721977       -4.36308133846320        1.29253113032002
H           -3.04031584353524       -2.18814230288135        2.04983778687660
H           -2.16192624976740        0.07183974737197        1.96897441617676
H           -3.16598174589636        2.40600216734187       -1.88438979608952
H           -1.77501767741616        3.28220568974302       -1.25736748713890
H           -1.75822724657414        0.24967992212449       -1.64454718636591
H           -1.04889496237198        1.41459743408555       -2.75232090113566
H           -0.76814540494319        1.70003277050007        0.66259951898355
H            0.69905488317608        1.99151905628075       -1.02333915379557
H            2.15498194189454       -0.67157798280489        0.73573166938455
H            2.34152483259087        0.96498211995479        0.09597937296079
H            2.80275183469553        0.02007471834168       -2.16487006397968
H            2.71617725752915       -1.61393514894992       -1.48754922156965
H            4.65895993735643        1.52511056810740       -1.56187020862924
H            6.96593628004036        1.72548315980342       -0.79055883712433
H            8.69646215138189        1.78443026927741        0.80369666063960
H            9.24143124217561        1.10743698517204       -0.75830117952122
H           10.08442709676892        0.67126372296122        0.74838952260755
H            7.10126623960989       -4.26126682249825        1.67774769635480
H            5.48733990063923       -3.52656481349646        1.82301068770739
H            6.06419404343374       -4.12058384266244        0.23855314935581
H            4.44589793906676       -2.42738294656891        0.01342121683732
H           -0.18687661470231       -1.66828231028367       -1.60761702871379
H           -0.99686614398734       -1.23258229297491       -0.08625025454209
H            0.57105882582586       -2.05089520348211       -0.05337756656764
H           -4.74526417931504        2.97069541537770       -0.14325368612284
H           -3.75269324568606        2.88830805981435        2.73330487016273
H           -4.88788256074031        1.74227442789407        2.01455577348375
H           -5.35001665874770        3.43812969548369        2.20012857624702
H           -2.69546067659553        4.69721859327574        1.29781998828267
H           -3.16128654298745        4.85129021176627       -0.40541448141501
H           -4.32839558358850        5.19295820146717        0.86419111572083
H           -0.63800824809646        2.85858288355934        2.66036203627671
