72
 energy: 40.646137439356 xtb: 6.6.1 (8d0f1dd)
N           -1.76528587671933        3.23258868880070        1.98875632961345
C           -1.90784233357054        2.54539146270013        0.93649187869580
C           -3.17137216183917        2.31464639291234        0.15663705494258
C           -3.58994577058051        0.85133107027748        0.23131506970668
C           -4.59759713319304        0.38974555244534       -0.61481901660206
C           -5.00651252112825       -0.92850209902929       -0.59688977316311
O           -5.98175590796458       -1.47388143888686       -1.38119608326510
C           -6.70014492539867       -0.62518052980280       -2.23736883314257
C           -4.38559308244730       -1.83366264227771        0.28604299826123
O           -4.84017012554856       -3.12110857421495        0.22052352992059
C           -4.32588336741281       -4.03932753913583        1.15225317245389
C           -3.39664474903303       -1.36933835918313        1.12981867056646
C           -3.01183129769925       -0.03587016785145        1.11101890106023
C           -2.99356718135942        2.61973117994237       -1.31405083820479
C           -0.93584464612936        1.03713190399253       -1.75473294056645
C            0.28378246493475        0.97717098648901       -1.16247027614151
N            0.84890449875909       -0.09785878682004       -0.52558694728521
C            2.23262192392421       -0.11423192686490       -0.13670175843850
C            3.14724093758803       -0.73645331698714       -1.20641260498565
C            4.58250588152645       -0.62341209632171       -0.78924213289609
C            5.29584663640924        0.53589626347050       -1.03335314084843
C            6.61283180081490        0.65966339819785       -0.60978704095855
C            7.23724834750050       -0.37368937773578        0.06735913213116
O            8.52430318767898       -0.36091564638283        0.52142924906695
C            9.31287706210657        0.77223844863905        0.26658195522604
C            6.51298069912993       -1.55653030795309        0.33195516913346
O            7.20401011076877       -2.52049783864391        1.00400053167234
C            6.57469168481942       -3.74557326383011        1.27676326403734
C            5.20077465269399       -1.66036339402939       -0.09402631800631
C            0.11120834318354       -1.34127354235496       -0.39963474550492
C           -4.31929366916867        3.16921434749788        0.73158356077782
C           -4.65083223578576        2.72091806164557        2.15129816343361
C           -3.96665051051040        4.65272182238619        0.74105662273239
H           -5.06098705753469        1.07800592260457       -1.30235026308749
H           -7.20163940462272        0.17706538103377       -1.68389802239592
H           -7.44928322931983       -1.25562095506667       -2.71508487925638
H           -6.05970568317103       -0.18481605662741       -3.00761974222993
H           -4.49296769729649       -3.71274485657988        2.18614219920679
H           -4.85748392653727       -4.97391191581468        0.97875573760650
H           -3.25453283067795       -4.20387766698415        1.00169887287478
H           -2.90418029908744       -2.03590694435346        1.81976714468399
H           -2.24259489304277        0.30190551616040        1.78734248617815
H           -3.92433697145815        2.66278397338507       -1.89518191909124
H           -2.29600927329791        3.40163830386708       -1.57172150958456
H           -1.58642317982591        0.18513440761988       -1.72038007190750
H           -1.06685981289299        1.61495939324278       -2.66653854030813
H           -1.08130404285304        2.06379080843506        0.43007448080149
H            0.95147459836231        1.82152011470089       -1.37976477584732
H            2.36157810982446       -0.66656620719663        0.80435471560059
H            2.56077821193721        0.91084207773753        0.03449058909866
H            2.98321453587159       -0.20264952720077       -2.14220481674067
H            2.87219425657303       -1.78360730455951       -1.34393369956190
H            4.82913783805925        1.35357537479081       -1.56245814699508
H            7.14995701342378        1.57097133809701       -0.81961540865292
H            8.89834254331376        1.66278061320673        0.74856407669712
H            9.42304683819148        0.95844426637875       -0.80780952737047
H           10.29363961708838        0.56046421144521        0.69243676319373
H            7.31838522461171       -4.36009003439252        1.78504476322124
H            5.71117047763558       -3.61557071406612        1.93620479220467
H            6.26072766413381       -4.25385126059955        0.35925090599004
H            4.63847029028480       -2.55909610698458        0.10890283863953
H           -0.01428905955753       -1.84716156643960       -1.37106702938256
H           -0.88135585721913       -1.16508914771432        0.02131422457408
H            0.64304872922051       -2.01938447993871        0.26960361262767
H           -5.18856296521075        3.00726795553125        0.08576179496571
H           -3.78854965434643        2.84876182350760        2.80218267917978
H           -4.94225265273714        1.67494948539626        2.17101634929127
H           -5.46833133992681        3.32768372144548        2.53244186665432
H           -3.12599811879116        4.81637998599663        1.40722817769253
H           -3.71776578642602        5.01720828505594       -0.25148911713357
H           -4.81765839128384        5.21573980373470        1.11280395279299
H           -0.79381215493787        3.27145307977340        2.29818095211276
