72
 energy: 26.240004932273 xtb: 6.6.1 (8d0f1dd)
N           -1.91576148632784        3.48835013789135        1.54522007938852
C           -2.22409136682929        2.83570897631355        0.52011910210795
C           -3.65485117291974        2.58981315094984        0.09757734202425
C           -3.87963204513043        1.07019467593386        0.09196185568393
C           -4.89810615557441        0.52604668467098       -0.68988116595697
C           -5.15334185116849       -0.83263558104730       -0.68397237183092
O           -6.13486478896745       -1.45270808375602       -1.39613301027046
C           -7.01560626374381       -0.67114564444635       -2.16221721091272
C           -4.36314482555680       -1.68822871673708        0.11728973739956
O           -4.68531785807348       -3.01072695045113        0.05408600088895
C           -3.98254497750505       -3.91587292098211        0.86590923359517
C           -3.35719731035196       -1.14078682231024        0.89165387099907
C           -3.11788182090887        0.22842577560856        0.87880146400996
C           -3.76456732877805        3.10850388242622       -1.28484486909344
C           -0.52405510978216        0.76949489927878       -1.90785532017524
C            0.65211570505721        0.74677092811021       -1.28332359786393
N            1.08603189382717       -0.18328652411327       -0.37347915172374
C            2.48102894939621       -0.21645173691491       -0.02640959748969
C            3.36613814925947       -0.94252317437624       -1.06279393692359
C            4.81353194721065       -0.82478553845069       -0.68749464155742
C            5.52665812086560        0.31869760718664       -0.99610820344965
C            6.85547046167351        0.45448772529164       -0.61907564966112
C            7.49326347923515       -0.55767965538823        0.07481747516454
O            8.79053684051774       -0.53841032301861        0.49135811409110
C            9.57211350158765        0.59397169187918        0.21026378751542
C            6.77494242468159       -1.73208912437342        0.39521111111564
O            7.48704694147713       -2.67662010707778        1.07126202235202
C            6.86291086152060       -3.88975386527021        1.40298128809875
C            5.44965424736902       -1.84561710615588        0.01679619477706
C            0.30799543970953       -1.37842642424267       -0.17020583941575
C           -4.72895120608753        3.25127546994161        1.00347661719331
C           -4.74017482354010        2.67864966550271        2.41732243503074
C           -4.54728609886660        4.76750089298171        1.05461097514498
H           -5.49344673906807        1.18429999941212       -1.30188459727848
H           -7.56114123316920        0.04905001830460       -1.54305571027940
H           -7.72197470907104       -1.37623531553831       -2.59855259812659
H           -6.49476507871708       -0.13919597446444       -2.96543717019522
H           -4.08589608230112       -3.67227114268480        1.92877344338341
H           -4.43566422678498       -4.88779469570609        0.67533562521996
H           -2.91922361201154       -3.95618375164391        0.60463407000676
H           -2.75446667842598       -1.76977728398855        1.52850421729478
H           -2.33995925934510        0.63025218371267        1.50953436126763
H           -4.68907612680578        3.51394437161085       -1.64796585584836
H           -2.93185990157291        3.05120762239653       -1.95783728564968
H           -1.27054662346512        0.00472008428232       -1.79663358059913
H           -0.76910102270705        1.58345922645121       -2.56573777386252
H           -1.50170164059275        2.39129417159355       -0.17955034239883
H            1.35855205750830        1.55315874214115       -1.43887907111128
H            2.58745252101878       -0.70744712701443        0.94596523177780
H            2.83814214291962        0.81222051052479        0.07904575906606
H            3.19481201391694       -0.48448393382406       -2.03934456623575
H            3.06877366190566       -1.99088594499656       -1.11761083629117
H            5.05159600074175        1.11815144744428       -1.54521982884882
H            7.38390210223406        1.35809531150185       -0.87920818774650
H            9.16788344247984        1.49441840926402        0.68539781268553
H            9.66796615271416        0.76456295046497       -0.86745742788455
H           10.55452554686502        0.37815674573350        0.62791503810174
H            7.62591152011333       -4.47768702435364        1.91141557862375
H            6.01449585162151       -3.73936036085602        2.07947991845246
H            6.52576936699856       -4.43037117450513        0.51191341490893
H            4.89156549038729       -2.73787583961336        0.25680761148580
H            0.25190794816282       -2.00379218607090       -1.06987361350797
H           -0.70747563215499       -1.10025340047674        0.11612647737068
H            0.75244363582948       -1.96063409233469        0.63542493005804
H           -5.69756547081575        3.03205148567518        0.53708616848334
H           -3.77727979370296        2.84369448095936        2.89027602250205
H           -4.95333279640039        1.61211842971793        2.40750034314115
H           -5.50721990796041        3.17718679497323        3.00610277928944
H           -3.65757826333647        5.01192237132584        1.62576459235527
H           -4.43808121291671        5.17852949453321        0.05324016720160
H           -5.40925737529773        5.23090353173445        1.52915012537526
H           -0.91924934927355        3.60999783642103        1.71441694575552
