72
 energy: 26.902928461080 xtb: 6.6.1 (8d0f1dd)
N           -1.91465817714692        3.50807598560184        1.55635840624047
C           -2.21573891722743        2.83016721484771        0.54329586063729
C           -3.63711226603921        2.57222861120194        0.09115907018322
C           -3.87673891579824        1.05416610827603        0.10876239382969
C           -4.90191658690636        0.51728890745979       -0.67010501368497
C           -5.15798796929871       -0.84046330939157       -0.67386722097680
O           -6.14091655664457       -1.45208003898176       -1.39190127234784
C           -7.01735988795319       -0.66510240123280       -2.15703795320826
C           -4.36424278443565       -1.70094597196705        0.11793967743753
O           -4.68720960379614       -3.02341568713317        0.05309809098843
C           -3.97882146931288       -3.92894102232676        0.86003800180393
C           -3.35623491300156       -1.16021982474528        0.89474924115219
C           -3.11378297886466        0.20800792539746        0.88917378231200
C           -3.77452058126420        3.05067058485908       -1.31060089097974
C           -0.51878716031971        0.77786284786549       -1.89602659861444
C            0.66783483841728        0.73832987672760       -1.29705938656845
N            1.07980034730466       -0.16764039414255       -0.35772471307887
C            2.47527396840175       -0.20605286187379       -0.03128170012311
C            3.35385043913714       -0.93698711171437       -1.06520566898895
C            4.80021691371728       -0.81998333390736       -0.68078989215389
C            5.51643243025965        0.32143568837732       -0.99043916348575
C            6.84807172293984        0.45103205969374       -0.62175437020574
C            7.48668745507365       -0.56101108401558        0.07054469867330
O            8.78567377378451       -0.54257976650471        0.48596941156635
C            9.57021866065093        0.58839569226989        0.20718132492850
C            6.76503896106167       -1.73235752826454        0.39219979261250
O            7.48042750942202       -2.67998492012304        1.06153477325853
C            6.86035502636784       -3.89294885031505        1.39833937069020
C            5.43722159430098       -1.84219504459793        0.02033570903472
C            0.29981915742155       -1.36430421796998       -0.16768147349645
C           -4.71722888818153        3.24629929396111        0.97718618882535
C           -4.73836668503345        2.67944226824548        2.39531576453777
C           -4.54189652932210        4.76243942512076        1.02815581099431
H           -5.49784962165891        1.17814180809321       -1.27816698311050
H           -7.56441177828757        0.05398410284718       -1.53859657664604
H           -7.72343927978615       -1.36864342944651       -2.59604661152652
H           -6.49585765870233       -0.13242979162338       -2.95896462310989
H           -4.08046246173410       -3.68674117954330        1.92321530696947
H           -4.42537808266409       -4.90437061785330        0.67202853699318
H           -2.91593629396083       -3.96411241910918        0.59673265288620
H           -2.75311938690335       -1.79344731221272        1.52681412121138
H           -2.33184445456657        0.60515652866396        1.51795363906849
H           -4.70331085651429        3.44069615041297       -1.69123688265567
H           -2.90969104563580        3.10746609581557       -1.94310694078422
H           -1.27841401428410        0.02405986831009       -1.78493230551945
H           -0.76785287025452        1.59623556595627       -2.54974820003948
H           -1.47984965701335        2.37290671021345       -0.13484773497003
H            1.38009987603134        1.53715990439436       -1.47141648281478
H            2.58947971274132       -0.69448917084743        0.94108087258501
H            2.83058860580642        0.82401079999498        0.06453620773160
H            3.19417599978845       -0.49122542978905       -2.04999330392470
H            3.05390322243901       -1.98485026996985       -1.10684624148661
H            5.04798535595928        1.12328174560994       -1.54191920528681
H            7.37943988507976        1.35117717836108       -0.88626040513823
H            9.17001529615901        1.49032266505448        0.68353684113419
H            9.66960353281495        0.76085030839759       -0.87003051793387
H           10.55210582264463        0.36982090136345        0.62535263967790
H            7.62691164811308       -4.47703848500104        1.90631259191006
H            6.01403743572508       -3.74339505853811        2.07755444974441
H            6.52317996735497       -4.43749685440738        0.50976063041272
H            4.88229419671188       -2.73675377879536        0.25846833654102
H            0.25683266928306       -1.98930401794898       -1.06764501055465
H           -0.71948422338889       -1.09475767929236        0.11018082619242
H            0.74154366687824       -1.94047218352196        0.64230334487040
H           -5.67753062218357        3.02214706860872        0.49717259869865
H           -3.78023215455628        2.84519089177062        2.87870015688219
H           -4.95179310337974        1.61308211701709        2.38948238383601
H           -5.50775580832831        3.17814284871447        2.97878042519522
H           -3.65846019300002        5.01455018979971        1.60538813871722
H           -4.43761524858451        5.18786404613071        0.03168524256406
H           -5.40920121452580        5.20708447816387        1.51066953416103
H           -0.91744117277476        3.63187482729883        1.72433071145630
