72
 energy: 41.436674768154 xtb: 6.6.1 (8d0f1dd)
N           -1.74522379235078        3.19511652823471        2.02114954316392
C           -1.88168884416198        2.51329173948957        0.96565336529010
C           -3.13281933802346        2.29147947703092        0.16638162433927
C           -3.56572603881115        0.83354249881507        0.24134837577592
C           -4.57096965799186        0.37768857607844       -0.61101099148928
C           -4.99247288168775       -0.93651001807113       -0.59095174281658
O           -5.96670390126765       -1.47583370708199       -1.38061650412016
C           -6.67263648641033       -0.62321844557104       -2.24331435165397
C           -4.38761508994997       -1.84375247104299        0.30072719607636
O           -4.85443108004834       -3.12692328943939        0.23697313367750
C           -4.35619088375322       -4.04576162482088        1.17618435539341
C           -3.40032158809120       -1.38563279328149        1.14964280681148
C           -3.00224166796909       -0.05627484205371        1.12819261970151
C           -2.91067289126572        2.58149054923175       -1.30428521076863
C           -0.97738981367684        1.06588448656453       -1.74864196670159
C            0.24952029117274        1.00119612830730       -1.14009769340611
N            0.82866739747539       -0.09506016229718       -0.52752796361353
C            2.21126984780821       -0.10738322613583       -0.14066992802634
C            3.12810829147350       -0.71889160970449       -1.21538848092072
C            4.56285066642620       -0.60621145827155       -0.79601977809572
C            5.27640394489013        0.55385393359423       -1.03520916702754
C            6.59252447097191        0.67669031827837       -0.60859824869006
C            7.21580312678472       -0.35827829564909        0.06697118890551
O            8.50181111300035       -0.34646883303070        0.52305428358603
C            9.29104168410127        0.78707486989012        0.27153419455351
C            6.49127381838767       -1.54204050595183        0.32707085059764
O            7.18095609344416       -2.50751181201136        0.99812141450454
C            6.55115013048218       -3.73352705047534        1.26571894330968
C            5.18005682189233       -1.64494950701174       -0.10211518265362
C            0.09501959928065       -1.33969679412792       -0.41943300077455
C           -4.28083031194649        3.16195301114123        0.71525526228462
C           -4.63811282976458        2.72561234883245        2.13218248524712
C           -3.91531030417130        4.64215868504395        0.72220502571763
H           -5.02377442713284        1.06712952402620       -1.30466381886572
H           -7.16983729985198        0.18519576260586       -1.69507927874116
H           -7.42480281741442       -1.24804597379690       -2.72363366195171
H           -6.02359198171109       -0.19100697170610       -3.01096551750564
H           -4.52820425650030       -3.71268625433553        2.20705785574451
H           -4.89589253322857       -4.97548346931054        1.00215872994070
H           -3.28533987882698       -4.22167196231828        1.03490906600710
H           -2.91869168188096       -2.05400450209947        1.84523783209309
H           -2.23439590811722        0.27637019619504        1.80865287220660
H           -3.83714464480066        2.61630895793562       -1.89764495440386
H           -2.24114336908126        3.39701644717264       -1.53179684770659
H           -1.61021819809539        0.20201602680638       -1.71622704838937
H           -1.09146736686623        1.61068787791146       -2.68716931558545
H           -1.05430282124891        2.02644027040398        0.47235580477236
H            0.91929245442121        1.84684791332233       -1.34059384964146
H            2.34067088784944       -0.66853064141037        0.79480239566814
H            2.53640440119950        0.91701734489284        0.03937034135870
H            2.96359919173222       -0.17806002639004       -2.14665144859966
H            2.85594319777219       -1.76561008908481       -1.36218361788613
H            4.81052111758637        1.37286786071963       -1.56275042727878
H            7.12987587014709        1.58867479021820       -0.81469404305069
H            8.87600735233187        1.67672509279615        0.75465815232824
H            9.40273741641323        0.97518364790872       -0.80235010711117
H           10.27106608199307        0.57426067244019        0.69840090724734
H            7.29376041024800       -4.34976325813711        1.77341631215825
H            5.68633043501697       -3.60558531119664        1.92385198240056
H            6.23901093323744       -4.23869309222069        0.34590184240350
H            4.61759251832456       -2.54434738120931        0.09736847216082
H           -0.03413209185014       -1.82876762042660       -1.39847547265359
H           -0.89520567611452       -1.17281698536379        0.01043281124903
H            0.63352298367737       -2.02669234188540        0.23469596015821
H           -5.14187372936612        3.00503690836394        0.05736890041376
H           -3.78349519663872        2.84998548900333        2.79405144438811
H           -4.93734047028056        1.68192494941591        2.15332800095466
H           -5.45685993484833        3.34064372923079        2.49662709813605
H           -3.07873872226207        4.80083435276577        1.39445900661221
H           -3.65589981293793        4.99996318203265       -0.26983788120415
H           -4.76347562426429        5.21541841428576        1.08510124726758
H           -0.77809736894806        3.22705278681504        2.34199497564725
