72
 energy: 39.348065480180 xtb: 6.6.1 (8d0f1dd)
N           -1.78397328823543        3.26783607191336        1.95308390771469
C           -1.92990211773070        2.57547846475022        0.90360778066424
C           -3.20845173894773        2.33752003528926        0.14640137446979
C           -3.61366910456341        0.86914805374240        0.22125010839038
C           -4.62382900035449        0.40185799167182       -0.61857232205368
C           -5.02027484334335       -0.92032265040450       -0.60282793064418
O           -5.99658484399294       -1.47170511598088       -1.38169453984441
C           -6.72750111682117       -0.62720918512138       -2.23132299830495
C           -4.38337341938658       -1.82331730555379        0.27123804618003
O           -4.82575451999166       -3.11489957938619        0.20386266747302
C           -4.29555617654667       -4.03222896903065        1.12818093505480
C           -3.39273689160355       -1.35289041724951        1.10985283321496
C           -3.02095286794211       -0.01548689123524        1.09360899589623
C           -3.07030724259798        2.65425738203625       -1.32452828068642
C           -0.90321378629839        1.01569451744099       -1.76266722257677
C            0.30943065179568        0.95506317534494       -1.17925306864138
N            0.86180879632663       -0.09844671559802       -0.51641425599269
C            2.25094940193437       -0.11732274263457       -0.13185444054657
C            3.16476269210317       -0.75288545674626       -1.19685335233620
C            4.60122871816398       -0.64026984319429       -0.78177481194961
C            5.31500016024238        0.51788835691203       -1.03117308162003
C            6.63294607442624        0.64255808526462       -0.61085889544305
C            7.25859705423941       -0.38910268734585        0.06785487337425
O            8.54674594531049       -0.37541867465749        0.51973260299195
C            9.33471779220153        0.75735688268077        0.26162517897186
C            6.53446574904700       -1.57096024570277        0.33695694212107
O            7.22704065865399       -2.53343886357993        1.00983931434355
C            6.59839510465499       -3.75762412436215        1.28784625859613
C            5.22109737063347       -1.67559136788638       -0.08556951789948
C            0.12640793752400       -1.34367031857130       -0.37953259660064
C           -4.35641128036016        3.17625356013463        0.74753232338086
C           -4.66416020646799        2.71639638819814        2.16929311337712
C           -4.01768582706969        4.66318850414119        0.76043142024000
H           -5.09766400384502        1.08882102682369       -1.30003444466957
H           -7.23325361592171        0.16882136038445       -1.67267467889318
H           -7.47354442063973       -1.26340872494061       -2.70624170980968
H           -6.09590199013561       -0.17885520028041       -3.00429518987339
H           -4.45761782424174       -3.71200688541870        2.16499744993382
H           -4.81910663703573       -4.97153474693684        0.95518614116389
H           -3.22388077513479       -4.18549718615137        0.96840237216976
H           -2.88963030917389       -2.01762899753987        1.79414495564380
H           -2.25017936673847        0.32727191813892        1.76566491719493
H           -4.00727941494222        2.71063197940809       -1.89209057094482
H           -2.35168308054117        3.40750049535363       -1.61047084813927
H           -1.56347692761690        0.17057177627927       -1.72483333948426
H           -1.04453866897969        1.62614507174892       -2.64981810178503
H           -1.10339391688893        2.09579461420267        0.37958967740432
H            0.96664283995001        1.80237884800439       -1.38425278436735
H            2.38396537727254       -0.66339928837304        0.81312545203155
H            2.58396137678500        0.90729856523248        0.02988034926307
H            3.00283835464863       -0.22748078724340       -2.13808807079456
H            2.88804133714063       -1.80093571798192       -1.32520634965637
H            4.84765725504486        1.33423337577196       -1.56196493083309
H            7.16981090439949        1.55321002188628       -0.82447162631309
H            8.92083591658582        1.64882108290433        0.74256240861975
H            9.44334416420631        0.94177046312716       -0.81324507905746
H           10.31619325980234        0.54642503801688        0.68640453357585
H            7.34336258031070       -4.37029518551044        1.79655822498262
H            5.73623760697759       -3.62569379444279        1.94871181727162
H            6.28254690216838       -4.26901151861065        0.37267555788660
H            4.65924038177121       -2.57382438171281        0.12086083177688
H            0.00534320235776       -1.86544954655346       -1.34368787773601
H           -0.86828567421576       -1.15887401993376        0.03239972133608
H            0.65277812182052       -2.01229289916034        0.30405559130262
H           -5.23407767944424        3.00930538563360        0.11419697603583
H           -3.79646834521068        2.85049437513911        2.80932177063105
H           -4.94667306109573        1.66793452983195        2.18836979746365
H           -5.48019489883714        3.31436210380305        2.56742046203351
H           -3.17325451819728        4.83206898231380        1.42074180309658
H           -3.77927876834272        5.03460271517063       -0.23234712189962
H           -4.87166642994252        5.21579319457798        1.14077767966642
H           -0.80961530054605        3.31548239592309        2.25440112993283
