72
 energy: 36.527166912761 xtb: 6.6.1 (8d0f1dd)
N           -1.82295063477475        3.33957558066170        1.88156817261913
C           -1.97875717016061        2.63747530786439        0.83852941043231
C           -3.28591834782386        2.38113402588159        0.12933390146979
C           -3.66150543746157        0.90441174649470        0.20145906679267
C           -4.67658292433392        0.42616440129617       -0.62605866180719
C           -5.04766618148632       -0.90359810213014       -0.61463640842096
O           -6.02607965200214       -1.46734076761547       -1.38245734618035
C           -6.78210349546835       -0.63181215854258       -2.21889546083036
C           -4.37847346255981       -1.80088527965520        0.24237206827209
O           -4.79770197034894       -3.09888849004552        0.17624688202506
C           -4.23503075817946       -4.01687469157963        1.08074557637659
C           -3.38341586420145       -1.31955897367340        1.06928033234387
C           -3.03834509403129        0.02538370755927        1.05801756937796
C           -3.21564563191838        2.72210925038891       -1.33869646834893
C           -0.83850945456609        0.97792506163405       -1.78043357889514
C            0.36485942609721        0.90782691367631       -1.21477594960371
N            0.88723098173577       -0.09875032909087       -0.46830129784091
C            2.28871055549924       -0.11930816647891       -0.11843037475464
C            3.19882996924431       -0.78561745908589       -1.17394114441497
C            4.63842360145908       -0.67398660727958       -0.76547404341891
C            5.35326450456904        0.48160461573108       -1.02620006043471
C            6.67328824784252        0.60807132229996       -0.61293944454333
C            7.30143542325933       -0.42010231264475        0.06891624399410
O            8.59184309229775       -0.40459041251214        0.51614400382215
C            9.37837778801166        0.72756679551863        0.25161008331320
C            6.57763498846069       -1.59994352588316        0.34713263199093
O            7.27341944683216       -2.55958954739585        1.02130666126225
C            6.64595913796491       -3.78187596796468        1.30955537255606
C            5.26185241104721       -1.70613661620132       -0.06788854065517
C            0.15820031071316       -1.34817220934113       -0.33534845263216
C           -4.43068720098466        3.18999457627910        0.78185705020859
C           -4.68762050231643        2.70767073971661        2.20762450164769
C           -4.11940309032467        4.68357421355748        0.80090994575174
H           -5.17139742943801        1.11096749508921       -1.29471357384655
H           -7.29632398207236        0.15149080803110       -1.64987402677268
H           -7.52171841011996       -1.27965405488564       -2.68814036566498
H           -6.16873357763308       -0.16739735006183       -2.99728842427143
H           -4.38682350127977       -3.71031638436350        2.12320030251634
H           -4.74308832096053       -4.96489476902131        0.90693070964674
H           -3.16351382180184       -4.14800527303418        0.90144542156682
H           -2.86069847731980       -1.98057228168705        1.74272353421509
H           -2.26466836649325        0.37809964777299        1.72151983455912
H           -4.16332735834380        2.81824339654969       -1.87699927017551
H           -2.46617227728657        3.42052057335165       -1.67931957189644
H           -1.51373747684663        0.14856323454875       -1.72687154483193
H           -0.99623055612698        1.64864905112469       -2.61875272233626
H           -1.15644395861121        2.16343372331307        0.28588192289415
H            1.00044235221686        1.76091494461582       -1.39302395190028
H            2.40503063636190       -0.63740908064246        0.84064598817689
H            2.63230760886809        0.90524197799533        0.02322964822061
H            3.04081586724226       -0.27746186797706       -2.12646827679984
H            2.91897004322139       -1.83531789604594       -1.28537643684291
H            4.88478213062273        1.29529580575515       -1.56040381477886
H            7.20953871936557        1.51741541396691       -0.83429144876987
H            8.96595425767545        1.62094432765104        0.73054055419429
H            9.48383863736561        0.90853938260151       -0.82418876976681
H           10.36122034996310        0.51805280215581        0.67414419043851
H            7.39362043965298       -4.39083922888495        1.81882741907801
H            5.78650627795152       -3.64628864713326        1.97328581473541
H            6.32628112253772       -4.29924783820916        0.39900291593082
H            4.70086528571372       -2.60326017490355        0.14556903024165
H            0.04744378497655       -1.89671232571455       -1.28774160433933
H           -0.84188377431553       -1.14704063357821        0.05183959591769
H            0.67290346676871       -1.99862359551200        0.37368817987082
H           -5.32613507143758        3.01357799282212        0.17445551963975
H           -3.80091219378651        2.84946034923119        2.82009928386812
H           -4.95448955542632        1.65472382227899        2.22412003707585
H           -5.49977659266826        3.28788518230390        2.64118424876560
H           -3.26728514011305        4.86310137265476        1.44886115777306
H           -3.90259793156394        5.06845270339539       -0.19229392209766
H           -4.97850416001020        5.21570921198105        1.19860129956343
H           -0.84388517000905        3.40391475887167        2.16825381336710
