72
 energy: -99.302409995115 gnorm: 0.009613820164 xtb: 6.6.1 (8d0f1dd)
N           -2.17646209237373        2.94223273078764        2.29213163225539
C           -2.03339552806859        2.23845401518318        1.26870503705481
C           -3.11066589511951        1.99032403952989        0.24566816436991
C           -3.48520779605921        0.51317883297823        0.23135798202187
C           -4.23911005145260        0.05409804496228       -0.90637790496608
C           -4.46535871165787       -1.23851933267754       -1.21907822068585
O           -5.13963135546982       -1.72872027427696       -2.26173194263180
C           -5.77649752746301       -0.84447267780774       -3.15956588625907
C           -3.88632631295304       -2.61017797341942        2.08906168661756
O           -4.35342094221689       -3.74495672530288        2.48082133404361
C           -3.44199829994055       -4.84076754368014        2.59601522142658
C           -3.54271676167463       -1.57656851598373        1.55082630229031
C           -3.13944552665417       -0.25918808107481        1.29609768982874
C           -2.48398116533546        2.42712926017857       -1.10650496574630
C           -1.50883251548654        1.40930424744408       -1.72190084285701
C           -0.21920016545747        1.30817233826385       -1.00304601652739
N            0.37676783504728        0.17212901632540       -0.65322662124443
C            1.75005601642987        0.17734605289398       -0.20874622885130
C            2.71496991058635       -0.17162162274776       -1.35927621810413
C            4.13776180736471       -0.07457299213077       -0.88697266759033
C            4.81298145894138        1.13395482585649       -0.93061375887518
C            6.11834663575445        1.23421959814091       -0.47488294998008
C            6.77355762874800        0.12477184154683        0.03916834820995
O            8.03745355533751        0.10391727188549        0.50277519563757
C            8.80678006593030        1.28336730877869        0.45105360905283
C            6.08598739833732       -1.11875468682798        0.09448229592818
O            6.79644736526920       -2.14437734554655        0.60654479038669
C            6.21131101091749       -3.42268903614315        0.67043438375726
C            4.78106082963657       -1.19436310826451       -0.36532250017159
C           -0.25872675494149       -1.11259252912744       -0.83091295690040
C           -4.41244246680309        2.80536496105249        0.51229466528377
C           -5.09472582646443        2.37670210633096        1.80995390449608
C           -4.18299251492127        4.31509284499203        0.53458666412364
H           -4.62321257946463        0.81431381384402       -1.57223668866376
H           -6.54173629777701       -0.24754823535993       -2.65690412970065
H           -6.24684857444472       -1.48028522533117       -3.90989110286453
H           -5.05565178868397       -0.17932969179343       -3.64432143352295
H           -3.15708408458649       -4.97198058261177        3.64140750025166
H           -3.97807515551884       -5.72522366395252        2.25000728464841
H           -2.54988660835200       -4.67545113988972        1.99265528066699
H           -4.07408018906306       -2.04091280180008       -0.61323165837560
H           -2.55611742265878        0.19352778809402        2.09541420329134
H           -3.28056180534299        2.61590206251964       -1.82700840740647
H           -1.95843521831758        3.37174270750893       -0.95080265803205
H           -1.99363266618569        0.43954696731886       -1.80569366510594
H           -1.28903879171302        1.76114833630204       -2.73792076763462
H           -1.07822946608673        1.76328044783842        0.97466695117306
H            0.35092765987023        2.21478780537543       -0.86569691499592
H            1.87024793074346       -0.54593150177621        0.60226326197094
H            2.00363695001728        1.16748320227487        0.17669003922456
H            2.54635953183982        0.52954476244575       -2.17891981265118
H            2.50470969545794       -1.17989946185783       -1.71838227966330
H            4.32855154519730        2.00947257695777       -1.33565536652951
H            6.62072857984341        2.18592812525234       -0.52934610158392
H            8.36822740047540        2.07529902287676        1.06587897293843
H            8.92347235958912        1.64003215257964       -0.57671604197703
H            9.78163478197801        1.01354867876378        0.85242410051974
H            6.97573447947150       -4.07294850799732        1.09123465041958
H            5.33221767470771       -3.42991500401932        1.32307834424408
H            5.93336518410752       -3.78734688604436       -0.32341067373693
H            4.25324036609457       -2.13479561904443       -0.33638084186362
H           -0.37571933400646       -1.35519811076156       -1.89029938699438
H           -1.24317575790853       -1.11855786452571       -0.35613239750336
H            0.35367553485864       -1.88091835356765       -0.36539925082684
H           -5.09499679873958        2.58082631561403       -0.31612427018466
H           -4.43735531821238        2.55849644336065        2.65406640052889
H           -5.36336192624040        1.32267394065917        1.78972785293197
H           -6.00247983576721        2.95728987554256        1.94999780380834
H           -3.54272500362135        4.58378826140134        1.36905916633910
H           -3.73714347388697        4.67738687811038       -0.38904923593378
H           -5.13913266506647        4.81612288790677        0.66086695806623
H           -1.37387662323779        3.07082222824890        2.89752993185977
