72
 energy: 68.640354787779 xtb: 6.6.1 (8d0f1dd)
N           -1.50137335522931        3.07022325809945        2.30269002347649
C           -1.50971032555141        2.24543713091951        1.36027822544664
C           -2.65692702833294        2.04951299817476        0.41414883272688
C           -3.15005682920509        0.60803365195266        0.49828576324303
C           -3.95109711774410        0.09079973463223       -0.49653547036295
C           -4.47970328773935       -1.23822808397638       -0.47302667922430
O           -5.17482048784388       -1.69398980744696       -1.39879279864843
C           -7.74555560646555       -0.12974253931917       -3.89303245888593
C           -4.13316002490298       -2.02257044975264        0.71036261698354
O           -4.66451791964171       -3.27565559180419        0.71132068805581
C           -4.45804286783078       -4.11469541422653        1.81255959617014
C           -3.34006422395338       -1.48933113207095        1.69961055108071
C           -2.84088739086757       -0.19020283709863        1.59909197621485
C           -2.09285976768826        2.35694959997026       -0.99935603342024
C           -1.21889670538530        1.24803581061971       -1.61506663699207
C            0.10425453605987        1.10760458988681       -0.97618199918158
N            0.67054277610189       -0.04395526908977       -0.61996418949157
C            2.04767703416031       -0.08349859823770       -0.19447080054131
C            2.97984062935475       -0.59951016519860       -1.30854271122391
C            4.41293664187286       -0.48949299352263       -0.86865073018966
C            5.12460209819886        0.67525253076289       -1.08121600845247
C            6.43604445981896        0.79749960660131       -0.64232185724520
C            7.05346999940035       -0.24668007428272        0.02225343942984
O            8.32556146220556       -0.23932489176609        0.49818594724039
C            9.11210821790069        0.91089137316333        0.31170272947268
C            6.33377451153446       -1.44555691397182        0.24338567387289
O            7.02298732493358       -2.41758525804969        0.89605314998182
C            6.39885198718586       -3.65390784552401        1.13421577154447
C            5.02787185997947       -1.54736209128558       -0.20009481492690
C           -0.03486198605165       -1.29892727206623       -0.71270124444585
C           -3.87143316509667        2.97857804212670        0.69930520723101
C           -4.47762467252226        2.70640035729861        2.07515746813962
C           -3.54172848627542        4.46495822492059        0.57345000640729
H           -4.23858028603923        0.68203778874077       -1.35371827109632
H           -8.20433323244507        0.65166514511552       -3.32721885544222
H           -7.93345266295902       -1.15156634061585       -3.64213197209771
H           -7.01770901182628        0.10999332937330       -4.63724459949760
H           -4.85839455846040       -3.68237718670962        2.73663778405835
H           -4.99594044317065       -5.03435501913834        1.58385453468395
H           -3.39521035481627       -4.34554628900413        1.95561392710377
H           -3.09532683814503       -2.06377221653915        2.58302977820186
H           -2.24582233097780        0.20442204868692        2.40998641923284
H           -2.93213852018994        2.52454008960060       -1.67363580494793
H           -1.51362310498551        3.28117652753036       -0.95121685803976
H           -1.77336990437313        0.31113854448005       -1.61287693822914
H           -1.04894275060741        1.53425152398307       -2.66190061021323
H           -0.64583250027845        1.60449476626318        1.09735428024685
H            0.71687577590910        1.99225575148189       -0.88410877888142
H            2.13618434146302       -0.73083665108211        0.68279961782566
H            2.36674830020689        0.92151814709336        0.09072421233850
H            2.81922128030767        0.00394992049405       -2.20390995093973
H            2.73288510288248       -1.63570444079186       -1.54291304334034
H            4.66608732613781        1.50171608871777       -1.60359454544392
H            6.96669236023669        1.71704259736609       -0.83030538299417
H            8.67552417991709        1.78494040895605        0.80632189971471
H            9.26202328575111        1.13098821598443       -0.75040857037851
H           10.07284213536481        0.68181588203688        0.77007361378618
H            7.14305148985211       -4.25913716360061        1.64947691163547
H            5.51674626466232       -3.54666752563940        1.77448072238419
H            6.11405040538668       -4.15047713782953        0.20064772828446
H            4.47160849397999       -2.45851468946787       -0.04158689202493
H           -0.26335750743956       -1.54988380531739       -1.75063209283696
H           -0.97228295685684       -1.25142196537032       -0.15125841802245
H            0.58402766401695       -2.08792670784479       -0.29300245544084
H           -4.62817870587650        2.72741790615773       -0.05305787431060
H           -3.76469039451755        2.95908925397771        2.85347445078594
H           -4.75870148184028        1.66137864370428        2.17593590305008
H           -5.36940366005242        3.31470180788040        2.20776879659691
H           -2.75966669751481        4.73393237722745        1.27658550684353
H           -3.22553250171258        4.72658781211466       -0.43315144746262
H           -4.42892591742458        5.04917096913471        0.80617560987893
H           -0.65045518109032        3.12729274936295        2.85731475962604
