72
 energy: 60.176729466159 xtb: 6.6.1 (8d0f1dd)
N           -1.51801216431450        2.97678277070089        2.28089549853074
C           -1.53544713276699        2.21032136426897        1.28591539502512
C           -2.69743016429620        2.05642009554490        0.34297414191946
C           -3.23173030024796        0.63247939176050        0.40509823420404
C           -4.10679299060309        0.17747718290666       -0.57568267063377
C           -4.71234440451925       -1.08607701942390       -0.63243178897467
O           -5.51278071309254       -1.34218862307205       -1.68191832519326
C           -6.95493360210559       -0.46445983617354       -3.00278247884183
C           -4.32688127507395       -1.95353735801993        0.50678187547650
O           -4.84716315585859       -3.22438555811000        0.53595501421072
C           -4.55507693921232       -4.08223988278812        1.60814093381393
C           -3.46367858598632       -1.48564395030368        1.48882371204338
C           -2.90655017913273       -0.21332946406201        1.44569592464372
C           -2.13349261691773        2.34047549021884       -1.07309522878041
C           -1.23073305982239        1.23098975147771       -1.64981365914189
C            0.09031886399584        1.11554714825526       -0.98097909426713
N            0.66005592169978       -0.04615084893193       -0.59787689916708
C            2.03342129450241       -0.06961930675992       -0.17875723299433
C            2.96540529115104       -0.57583358745971       -1.29776006502992
C            4.39466053784165       -0.46613380705332       -0.85982498911984
C            5.10790961564724        0.69867384513225       -1.06612243144874
C            6.41985870307467        0.81485414671254       -0.62649908266015
C            7.03564235235631       -0.23319952390392        0.03476532778146
O            8.30833884497256       -0.22682485082694        0.51528745712064
C            9.09651633625225        0.91872606771446        0.31509513891454
C            6.31246120969206       -1.42792664257748        0.25672163935079
O            6.99542249615237       -2.40272103667876        0.91591144269191
C            6.36593833976278       -3.63719467851104        1.14315162321738
C            5.00563872130539       -1.52378585883498       -0.18691476549281
C           -0.03922027655886       -1.30587144951040       -0.67769271714681
C           -3.87682587905311        3.01943070125923        0.65024302702279
C           -4.48854065890931        2.73580384505452        2.02186253899213
C           -3.48502646064210        4.49320436322486        0.56199430114393
H           -4.40030646693642        0.84056487797834       -1.37720418209275
H           -7.46923883446799        0.34376286783083       -2.52507118509737
H           -7.56160697682645       -1.32191811872004       -3.21273814331979
H           -6.31503740872250       -0.15338973148949       -3.79411352444044
H           -4.87305414105698       -3.67024222008833        2.57323159874196
H           -5.12435518451712       -4.99137618485021        1.41080314364426
H           -3.48989238264149       -4.34070799085473        1.66690018071721
H           -3.18169846672740       -2.11080141382916        2.32636027088414
H           -2.24388625208503        0.11173195561788        2.23520866425534
H           -2.97369186016950        2.48224251037749       -1.75666096906336
H           -1.56608809897579        3.27054796811579       -1.04863754076734
H           -1.76764479988790        0.28332730240725       -1.62372474561437
H           -1.06227316170572        1.48823144237940       -2.70678388297925
H           -0.66892887882773        1.61683433175642        0.93634351223577
H            0.71895114659132        1.99273409119953       -0.94976716897945
H            2.14942280055306       -0.70899535483608        0.70385835606728
H            2.33956902794371        0.94033934924988        0.09588476960050
H            2.79783894377520        0.02915397581864       -2.19019202778610
H            2.71529540242546       -1.61178258689551       -1.53392592978749
H            4.64882354786374        1.52545250997289       -1.58691802416435
H            6.95266161528148        1.73390678325935       -0.81158874200811
H            8.66585015245643        1.79616335015847        0.80902792189779
H            9.23756037018170        1.13524937238097       -0.74940082141796
H           10.06116772679510        0.69105441028815        0.76560706168142
H            7.10638140879388       -4.25190549604633        1.65322920943095
H            5.48432278621913       -3.52968793018587        1.78389547774298
H            6.07753455904702       -4.12559573629162        0.20602261676370
H            4.44610566624553       -2.43346590096057       -0.02940638219901
H           -0.24392036276027       -1.58414254788524       -1.71699938558523
H           -0.99001915807909       -1.25178834492542       -0.14011808959825
H            0.56915772671901       -2.08540022536416       -0.22173535008110
H           -4.64471861333659        2.81875689187951       -0.10591408800841
H           -3.76069229574465        2.93856881905446        2.80247082570103
H           -4.81060049889673        1.70001080776551        2.09437931331574
H           -5.35479923119436        3.37559646474244        2.17630368214040
H           -2.69790590706121        4.70986209666637        1.27585273361892
H           -3.14878328786483        4.76224992072842       -0.43598778499903
H           -4.34754282015641        5.10959999283650        0.80505290875773
H           -0.64357331485030        3.01280065090541        2.80329528308405
