72
 energy: 22.590002838851 xtb: 6.6.1 (8d0f1dd)
N           -1.51314837856343        2.91033634366478        2.26763582183886
C           -1.53882481166698        2.17967710496683        1.24149825314411
C           -2.71505830807042        2.05574876447031        0.30804497754503
C           -3.26569824676302        0.63882135672510        0.37286765174677
C           -4.18753391752478        0.20150105021211       -0.58750991170438
C           -4.78894064742592       -1.04373662831631       -0.63768079164555
O           -5.75486358394694       -1.33199737388588       -1.70136650321172
C           -6.67122002686188       -0.55230341214233       -2.68016830250887
C           -4.37195593193552       -1.94086116748463        0.45196469175975
O           -4.90109381017936       -3.20328145516719        0.48571379212951
C           -4.59034687723132       -4.08524231802790        1.53965856322288
C           -3.46418793576275       -1.50056802388869        1.42009049750818
C           -2.90571985132039       -0.22958705948870        1.38216877350062
C           -2.15662553607095        2.32553446116241       -1.11290691634522
C           -1.23980967183652        1.21509763570660       -1.66178293501910
C            0.05661266142367        1.13713865354899       -0.93729419110420
N            0.65742574546531       -0.05637347103330       -0.57320654088695
C            2.02372375845090       -0.05976922802042       -0.17045246422626
C            2.95838205615307       -0.56434211230814       -1.29172965075550
C            4.38283705167284       -0.45546563358075       -0.85455352611856
C            5.09784918810991        0.70993898823125       -1.05814960733690
C            6.40870879298713        0.82409022299223       -0.61826177087375
C            7.02205918013033       -0.22575875708522        0.04202568360777
O            8.29852791458420       -0.22212190539392        0.52093382447008
C            9.08709613893473        0.92109934963209        0.31718546182285
C            6.29793802047117       -1.41827448183334        0.26409451234756
O            6.98153089961137       -2.39704754415705        0.92205664508842
C            6.34928497543310       -3.62981287017474        1.14596175831778
C            4.99243148237887       -1.51342139357081       -0.17939920301792
C           -0.04098278905476       -1.30691800724935       -0.65773692780460
C           -3.87509796698455        3.03789096964594        0.62747253159449
C           -4.49152211011610        2.74913352887900        1.99581521379260
C           -3.45466548236490        4.50488020938666        0.55769031151252
H           -4.48884816780899        0.88326152680216       -1.36508246996690
H           -7.23659027830309        0.29458746313094       -2.26799645630242
H           -7.40373594748455       -1.28156092269604       -3.04583445640358
H           -6.09608137246020       -0.18429756915190       -3.52731830218933
H           -4.87556718677305       -3.68380669578787        2.51821891502076
H           -5.17842066920431       -4.98276116598924        1.34365782072769
H           -3.52872379557597       -4.35857401596424        1.56091734016838
H           -3.14791065036579       -2.14500105506660        2.23630383178267
H           -2.21151317355165        0.08031311239486        2.15296372047188
H           -2.99492138298950        2.45167123011814       -1.80126636063554
H           -1.59573284250436        3.26040682334980       -1.09996962255716
H           -1.77473758960693        0.26544772449453       -1.62571222809675
H           -1.05182231332649        1.44839130079706       -2.72201558551947
H           -0.67312072859015        1.62449036429460        0.83484698736720
H            0.69716665342187        1.99922258646856       -0.95828806258852
H            2.14422391670092       -0.69486389925605        0.71531485884545
H            2.32271108606957        0.95415460570299        0.09948608787628
H            2.78643028756818        0.04206260202108       -2.18218051216664
H            2.70365467400536       -1.59945671570428       -1.52671287083836
H            4.63942910287152        1.53768617631284       -1.57794720824435
H            6.94392940402166        1.74183367546495       -0.80332737097094
H            8.66067129258404        1.80046368957384        0.81192995377952
H            9.22524416859776        1.13674200127496       -0.74814459162068
H           10.05276896528303        0.69094773843084        0.76447713919001
H            7.08905227061816       -4.24786231888234        1.65321418276045
H            5.46834171574468       -3.52291107819617        1.78814308963365
H            6.05826463572880       -4.11502112653997        0.20769322224469
H            4.43077197494309       -2.42178508129327       -0.02187721842990
H           -0.23654311868719       -1.59997355174015       -1.69717085926571
H           -0.99829107317517       -1.24833823288955       -0.13047117855653
H            0.56521213175506       -2.07905335399865       -0.18697765350961
H           -4.64706398478827        2.86529320939614       -0.13223910745290
H           -3.75792011682778        2.92646404884684        2.77706354611067
H           -4.83309946907842        1.71838134805825        2.05584287880826
H           -5.34474458136072        3.40415119424641        2.15963381851180
H           -2.66485218447059        4.69918036971935        1.27513001109752
H           -3.11140447207752        4.77913299926012       -0.43641277961977
H           -4.30637541995787        5.13475787899728        0.80579924226560
H           -0.63025041557303        2.92959873875736        2.77747961434063
