72
 energy: 70.339219222435 xtb: 6.6.1 (8d0f1dd)
N           -1.50226482885435        3.11329606087602        2.28344918290364
C           -1.51822756598455        2.24161275872371        1.38365434245540
C           -2.65389917633028        2.05093336289775        0.41931375449598
C           -3.15267149708599        0.61682385307845        0.47893597825340
C           -3.95198491388295        0.12552373027198       -0.52665049481723
C           -4.52420754648874       -1.18601564031802       -0.52001071228644
O           -5.22192965890973       -1.53243639114233       -1.49351408392274
C           -7.52985484040677       -0.29805634265586       -3.63889950419116
C           -4.18550503964469       -2.00252743027726        0.65004502396198
O           -4.70993872256599       -3.26097838480558        0.65910451846546
C           -4.47236359577328       -4.07419507167967        1.77438789520035
C           -3.39483010579264       -1.48373018992433        1.64945618613460
C           -2.88377105810250       -0.19176511441614        1.57774551929602
C           -2.08004760860601        2.37073955822374       -0.98607237873993
C           -1.21172678667845        1.25954705793171       -1.60986849510835
C            0.12630657367091        1.10433643913292       -1.01318042582367
N            0.66589117333164       -0.04044257235157       -0.60158654688053
C            2.05351365655830       -0.08932693810849       -0.19402649228395
C            2.98251366649481       -0.60429191250242       -1.31248036081198
C            4.41819071090179       -0.49275171826497       -0.87240444277264
C            5.13008818398822        0.67215288354195       -1.08355455649747
C            6.44244509508441        0.79311226365952       -0.64472525230226
C            7.06207279432129       -0.25051949238933        0.01866359506746
O            8.33135102459888       -0.23986011384553        0.49840869063605
C            9.11726259877388        0.91168162142092        0.31239346498652
C            6.34200219339884       -1.44995351909201        0.23956726533396
O            7.02820397577784       -2.41872592982495        0.89791406379935
C            6.40409759393461       -3.65520461778086        1.13507227395769
C            5.03464486209418       -1.54945337314373       -0.20285549746200
C           -0.03603727208349       -1.29806419872403       -0.71485937538918
C           -3.87548027523398        2.97536373391482        0.70401475685806
C           -4.47919329704910        2.70360521254536        2.08080249176216
C           -3.55182778886726        4.46235845418519        0.57265460873362
H           -4.20507774759153        0.73215344130178       -1.39063801825407
H           -7.99781416124074        0.47425764585190       -3.09378441746144
H           -7.89321532232832       -1.29064982874573       -3.56524599541336
H           -6.83903812372861       -0.06785153109739       -4.39852075310569
H           -4.86625080806847       -3.64086703080983        2.70318335429236
H           -4.99288889797336       -5.00833536154233        1.56972344943802
H           -3.40499740858517       -4.28794883912517        1.91429157833386
H           -3.16596174792492       -2.06792181949934        2.52627467084061
H           -2.31097269960662        0.18038655151763        2.40848086651727
H           -2.91981078239334        2.54660915815487       -1.66021190610554
H           -1.49905445814737        3.29154888905437       -0.93093608345064
H           -1.76741565896964        0.32394215709490       -1.61313237228127
H           -1.04744749747879        1.55890263431953       -2.65120467596416
H           -0.66023981595165        1.58101391120350        1.16178847373861
H            0.73150745432005        1.99091251458485       -0.90015633335481
H            2.14535601659718       -0.74222228889124        0.67756520281478
H            2.38152231860718        0.91237393023351        0.09269129637597
H            2.82275369497220       -0.00034886105175       -2.20773551269884
H            2.74072812397566       -1.64169310463265       -1.54924819687843
H            4.67111778255922        1.49791496468133       -1.60621340539464
H            6.97150759863764        1.71419968168898       -0.82934126146693
H            8.67750149507876        1.78417210627188        0.80656082509733
H            9.26653044476374        1.13151264361856       -0.74961609912307
H           10.07797494689485        0.68491242394527        0.77185891896625
H            7.14724987240046       -4.26121033015651        1.65118305263431
H            5.52113091821034       -3.54688856793512        1.77371954513394
H            6.12100635279492       -4.15147096457562        0.20089258094886
H            4.48009831528368       -2.46193942666172       -0.04507942004290
H           -0.25872850222000       -1.53559894744421       -1.75695999112544
H           -0.97592949501356       -1.26100673071426       -0.15643876258752
H            0.58187327714924       -2.09162489343723       -0.30117172234234
H           -4.63323904120321        2.71574340964776       -0.04428398909529
H           -3.76959059808413        2.96411217786502        2.86020880531199
H           -4.75736643203602        1.65842485537266        2.18421874329029
H           -5.37413954001794        3.30677812244119        2.21264205068612
H           -2.77293020076704        4.73492304019290        1.27639578602259
H           -3.23422567720653        4.72180957707237       -0.43392009652802
H           -4.44015936021389        5.04497052861623        0.80366230449838
H           -0.66920024045777        3.17839355130332        2.86214447930627
