72
 energy: -5.150748718290 xtb: 6.6.1 (8d0f1dd)
N           -1.49522473240374        2.79362192729789        2.24148609133045
C           -1.54857517174710        2.15535197463120        1.16099565989154
C           -2.74165224887963        2.05941245663211        0.25409269728453
C           -3.30693896242691        0.64709701420749        0.33355444140313
C           -4.28303928469412        0.24004880792199       -0.57890181547480
C           -4.83790458360510       -1.02482598684954       -0.55246233918278
O           -5.80855266965293       -1.46483504149710       -1.41880866281832
C           -6.43847980493513       -0.60345194427931       -2.35565034959160
C           -4.39172990478425       -1.94041655958360        0.44010091393963
O           -4.97613882553743       -3.17267438517063        0.42160837651844
C           -4.65159099387953       -4.09706108116018        1.42932323167055
C           -3.42743986266217       -1.53624875567423        1.34842744418532
C           -2.88873205405409       -0.25558193764107        1.29371788722356
C           -2.18973726694434        2.30530523209061       -1.17436367716284
C           -1.26044365573750        1.18410543802908       -1.66687909090054
C            0.00852958676394        1.13243612141833       -0.89578930249450
N            0.63588578326143       -0.04671085152432       -0.56209152951055
C            2.00442756608022       -0.03556196609054       -0.15985195216354
C            2.93795105804667       -0.54369755161542       -1.28020513098484
C            4.36243898657057       -0.43645293539439       -0.83960429109404
C            5.07905817623369        0.72779888019173       -1.04418598836372
C            6.39007161058558        0.83924060440704       -0.60549504841715
C            7.00097442733699       -0.21184819581372        0.05437511986913
O            8.27913545268111       -0.21314103396786        0.52602280560661
C            9.07169537227955        0.92711483220775        0.31883771427911
C            6.27442869590642       -1.40361213098205        0.27710207441946
O            6.95735363018968       -2.38569176694144        0.92906674121162
C            6.32128856976473       -3.61730127585809        1.15119966869283
C            4.96929462756641       -1.49652049103578       -0.16536190768015
C           -0.04970370764164       -1.30388755407393       -0.62562684082664
C           -3.87048248554129        3.07091168897586        0.59084210926432
C           -4.49461623388151        2.77100525333858        1.95265794200360
C           -3.40397393770853        4.52522047882253        0.55019315270192
H           -4.63060681950333        0.93662022522154       -1.32381197831258
H           -6.91343032575314        0.26344667554327       -1.88149959893915
H           -7.21247135094843       -1.20176904892754       -2.83576696531077
H           -5.73983001130763       -0.25232885897480       -3.12153453460652
H           -4.88199666873163       -3.71026819348025        2.42766861112906
H           -5.27339118503335       -4.96944348739958        1.23216507148941
H           -3.59732223027170       -4.39261218831498        1.38992583245905
H           -3.08115738720188       -2.20661478445186        2.12210227688141
H           -2.15524047981770        0.03265579404969        2.03225925667046
H           -3.02120648956447        2.39665444609831       -1.87362606081950
H           -1.64181204690494        3.24914541572590       -1.18599946584412
H           -1.79912209470978        0.23756898418250       -1.62324513177409
H           -1.01607834186959        1.38705350812445       -2.71811745886285
H           -0.68274875144304        1.64693977003483        0.67013490402410
H            0.65237873189670        1.99307181992272       -0.94501292887213
H            2.12338813407764       -0.66832595116653        0.72664271251357
H            2.30305999774333        0.98101342229127        0.10767360771529
H            2.76932504998368        0.06353149538006       -2.17121433827851
H            2.68360703966939       -1.57855157698791       -1.51427816953379
H            4.62421820420475        1.55782520561518       -1.56416852326423
H            6.92758406940560        1.75495632406086       -0.79264012750321
H            8.65234791840219        1.80868232544039        0.81573521210565
H            9.20500545227729        1.14032808709753       -0.74734868357840
H           10.03818681321617        0.69144560312784        0.76141985233949
H            7.06065758747118       -4.23900494579083        1.65393345422667
H            5.44272641844334       -3.51009435282892        1.79683533567769
H            6.02619767629881       -4.09731477971924        0.21167892991134
H            4.40583678937638       -2.40363326144388       -0.00811313799136
H           -0.22354041553595       -1.61959246436401       -1.66062342430130
H           -1.01476653033753       -1.24297225750447       -0.11350545938265
H            0.55972878103737       -2.05689492912495       -0.13102229560713
H           -4.64585170377758        2.94155966761797       -0.17351272333221
H           -3.75774211905193        2.90680077380580        2.73811284921705
H           -4.86724961028018        1.75024179391685        1.99191373122235
H           -5.32643523848825        3.44854808131190        2.13088744583443
H           -2.61096538521633        4.68901887135615        1.27331931094846
H           -3.05107960656752        4.81011998558793       -0.43783976126591
H           -4.23771066677296        5.17504447457879        0.80632162136179
H           -0.60293079328627        2.79326990408332        2.73325640306762
