72
 energy: 6.319645234379 xtb: 6.6.1 (8d0f1dd)
N           -1.50530215776001        2.86311144991291        2.25790044580307
C           -1.54327937747332        2.16730543418567        1.21019853851449
C           -2.72616978380545        2.05782550442923        0.28669530962079
C           -3.28251640865361        0.64318754322555        0.35752879964367
C           -4.22486479655152        0.21898357560423       -0.58553385547217
C           -4.81130032496176       -1.03368408135861       -0.61365955207155
O           -5.78217080740299       -1.38551564638772       -1.58546812226938
C           -6.57352019458440       -0.57677313535317       -2.54704466757149
C           -4.38112137476971       -1.93677359842271        0.44192132991072
O           -4.93228828841347       -3.18980275411649        0.45879918670267
C           -4.61568157449046       -4.08952344351490        1.49470952239681
C           -3.44914793980358       -1.51445281103735        1.38897741688990
C           -2.89792094722719       -0.23957411879458        1.34692456406876
C           -2.17061283945607        2.31711049979830       -1.13772642958259
C           -1.24839189772577        1.20302278417446       -1.66475196772397
C            0.03428545122741        1.14180582351123       -0.91384740243692
N            0.64654932408415       -0.05080242501386       -0.56453744696381
C            2.01540639089349       -0.05015455463464       -0.16547658088613
C            2.94967271380810       -0.55597214049106       -1.28677717170577
C            4.37452264488198       -0.44766268851727       -0.84892466625673
C            5.09029395903835        0.71715019943575       -1.05288211205577
C            6.40116707591692        0.83021235051955       -0.61316805646632
C            7.01354976569543       -0.22010223287228        0.04687131766900
O            8.29061917927424       -0.21829255988554        0.52316407582898
C            9.08086364513511        0.92362494509189        0.31767200118762
C            6.28855446186264       -1.41216599536342        0.26912863644233
O            6.97169248944151       -2.39221349622284        0.92515935651782
C            6.33795226541104       -3.62460675252425        1.14805954197234
C            4.98322009125897       -1.50637183984263       -0.17417139770492
C           -0.04454442472774       -1.30562585359989       -0.64401246530829
C           -3.87420293128682        3.05123848825664        0.61276855986985
C           -4.49317553591284        2.75792769384808        1.97886275753238
C           -3.43490470097195        4.51312123304213        0.55465774923768
H           -4.54621071021627        0.90820629127000       -1.34820569152595
H           -7.10489023632801        0.28062887082509       -2.11213386807581
H           -7.32988337820376       -1.25021346562660       -2.96190330391633
H           -5.95291797628667       -0.20905346221863       -3.36542957509780
H           -4.87862317814838       -3.69559452509621        2.48231467790190
H           -5.21739640662576       -4.97727970418857        1.29826599068921
H           -3.55705830974911       -4.37363989718095        1.49223058254401
H           -3.12029840083737       -2.16993947324795        2.18923502724409
H           -2.18668616551100        0.06114505223528        2.10479651436105
H           -3.00633344695082        2.43021725897357       -1.83022531072325
H           -1.61407028398587        3.25509090734214       -1.13430453230162
H           -1.78386168659992        0.25401880064635       -1.62426485709358
H           -1.03866026368962        1.42133706784121       -2.72336576501118
H           -0.67716534799934        1.63289580890988        0.76743871511770
H            0.67884969848603        1.99968718686063       -0.95533752889532
H            2.13665026737859       -0.68462989261126        0.72026825137923
H            2.31365449196018        0.96464921747909        0.10304078623434
H            2.77904672776709        0.05052516210750       -2.17740291103527
H            2.69572392192380       -1.59113660142503       -1.52158074679892
H            4.63318129360599        1.54587135479860       -1.57238245641422
H            6.93739270877393        1.74717310793351       -0.79884705179442
H            8.65720780343501        1.80388120529373        0.81317318278233
H            9.21694995213027        1.13818023830784       -0.74808118320695
H           10.04692572185311        0.69130157429455        0.76297932640442
H            7.07749223695718       -4.24426267251299        1.65347997714904
H            5.45786855915461       -3.51766494440657        1.79147846986890
H            6.04532801804047       -4.10766538640065        0.20921404825072
H            4.42088982243048       -2.41417695393312       -0.01643828354667
H           -0.23120123475056       -1.60816263069444       -1.68204118478543
H           -1.00495286949890       -1.24698817203906       -0.12291644484027
H            0.56347551069853       -2.07048289469484       -0.16418981913242
H           -4.64812065785957        2.89592047461711       -0.14852361072348
H           -3.75732554569744        2.91918051822399        2.76118168201642
H           -4.84615575904045        1.73064136137453        2.03073667074114
H           -5.33836697367876        3.42158967034999        2.14889804112351
H           -2.64373449880297        4.69390239607409        1.27460961108024
H           -3.08709716423212        4.79088362225760       -0.43696449054072
H           -4.27919893907842        5.15174408542084        0.80563865995329
H           -0.61869476823716        2.87412448449299        2.76070888354204
