72
 energy: 51.016974279025 xtb: 6.6.1 (8d0f1dd)
N           -1.51810857053895        2.95474797863313        2.27782410099806
C           -1.53547381014722        2.19987128023549        1.27176428444989
C           -2.70324023722122        2.05567632144314        0.33134066805874
C           -3.24392030745279        0.63474777580077        0.39347956184815
C           -4.13869925776270        0.18512776678199       -0.58133059578436
C           -4.74717807436149       -1.06458732604951       -0.63857616902192
O           -5.61378305062189       -1.32286818623278       -1.73240064410075
C           -6.83274216548006       -0.50374010770105       -2.86922097420272
C           -4.34801727454637       -1.94743542982383        0.48126088914287
O           -4.86584847914220       -3.21688309621163        0.51687500883172
C           -4.56677948322823       -4.08231730409348        1.58491759947172
C           -3.46847206676412       -1.48885249638323        1.46192417298997
C           -2.90860709292879       -0.21833851183939        1.42337023769906
C           -2.14175947879879        2.33514781598009       -1.08645856989984
C           -1.23386472032873        1.22651843793782       -1.65528676273681
C            0.07907218727839        1.12592885324246       -0.96733633432522
N            0.66084866836753       -0.05223217598287       -0.58732233975300
C            2.03034162218868       -0.06720039464241       -0.17606318277246
C            2.96408389807614       -0.57215733451552       -1.29603622914661
C            4.39082834118163       -0.46271648197267       -0.85860136705992
C            5.10470515803995        0.70250393767091       -1.06349222836729
C            6.41613772260941        0.81803605973574       -0.62366009042725
C            7.03092479451969       -0.23073957367190        0.03714193595916
O            8.30552867832134       -0.22525366270957        0.51733058977815
C            9.09331753592318        0.91953024811323        0.31567924694365
C            6.30755874358209       -1.42443314176797        0.25916368640458
O            6.99100031919001       -2.40103728092311        0.91815746472427
C            6.36038719576410       -3.63468092599252        1.14393105050503
C            5.00134340427106       -1.52022260393509       -0.18453526773977
C           -0.03938274589482       -1.30671225119942       -0.67099054520132
C           -3.87607603330115        3.02507930491700        0.64282309651912
C           -4.48968151258227        2.74017341006721        2.01328656288799
C           -3.47496718256752        4.49679851366506        0.56047809019171
H           -4.42945066472372        0.85655462243225       -1.37443435871256
H           -7.38226589305439        0.32204238187462       -2.43527354081859
H           -7.50147976766089       -1.30818317507050       -3.15122433062981
H           -6.23934597373899       -0.16725099828401       -3.69857615789178
H           -4.87465700493101       -3.67385797934623        2.55429352014649
H           -5.14282177565993       -4.98739270889118        1.38781203277246
H           -3.50309182446004       -4.34709416255905        1.63220480509443
H           -3.17204100188339       -2.12169207385758        2.29188214275913
H           -2.23444286906917        0.10065937318225        2.20720245217755
H           -2.98169110540057        2.47285715056162       -1.77115477211434
H           -1.57610673899153        3.26657922998616       -1.06539603656372
H           -1.76864519950413        0.27734580096674       -1.62432999051062
H           -1.06196067511525        1.47510391830344       -2.71444487561690
H           -0.67008594211209        1.61970303124171        0.90372691002936
H            0.71285910188657        1.99607711727435       -0.95403561610280
H            2.14900170292462       -0.70452688725315        0.70832879112907
H            2.33338528560056        0.94450131878965        0.09677303992262
H            2.79397627772040        0.03349099879501       -2.18745382954472
H            2.71155503770262       -1.60768445649823       -1.53166360915112
H            4.64564109714441        1.52945502047232       -1.58402290958139
H            6.94985555513562        1.73662872531391       -0.80876229168327
H            8.66402546421294        1.79770619052959        0.80979407563069
H            9.23333015854602        1.13586473949191       -0.74914485284475
H           10.05845253619914        0.69133336658521        0.76502733775318
H            7.10047235664455       -4.25074898979720        1.65307622911460
H            5.47887374258575       -3.52741591343358        1.78504775155462
H            6.07103120257292       -4.12198189754744        0.20636791945597
H            4.44096675167511       -2.42945178821760       -0.02716090770676
H           -0.24155162775736       -1.59007400864811       -1.71068795203374
H           -0.99251944838848       -1.25103110238740       -0.13697674743149
H            0.56747570652381       -2.08454842124916       -0.21005363143160
H           -4.64538640893104        2.83386326186399       -0.11478206987745
H           -3.75981749438203        2.93453021257774        2.79405828420563
H           -4.81836072874856        1.70596545770857        2.08175424728926
H           -5.35159675544245        3.38522487743365        2.17053655217708
H           -2.68688758827380        4.70608500218901        1.27543531987456
H           -3.13628086248287        4.76728471401374       -0.43622959089969
H           -4.33400661497076        5.11774156697708        0.80506908209414
H           -0.63953249102492        2.98554712691350        2.79469102118131
