72
 energy: 0.799882317561 xtb: 6.6.1 (8d0f1dd)
N           -1.50194048742751        2.83929669472526        2.25367213429052
C           -1.54571231544708        2.16281627234974        1.19445969057078
C           -2.73173216695571        2.05861672125463        0.27603439984812
C           -3.29106249255903        0.64503292378793        0.34989270670165
C           -4.24426574717075        0.22671053326055       -0.58310860168830
C           -4.81921501987992       -1.03050497438163       -0.59403249250893
O           -5.78983813578115       -1.41250639745391       -1.52943425969598
C           -6.52669246275729       -0.58669521081392       -2.48168300998848
C           -4.38317480942670       -1.93730389594668        0.43968487037536
O           -4.94659156845771       -3.18375661158871        0.44602976725529
C           -4.62780310150412       -4.09192017889219        1.47270607011487
C           -3.44092728295720       -1.52157898609865        1.37533176701571
C           -2.89449532397466       -0.24461760954119        1.32929271598728
C           -2.17739561261718        2.31291795863129       -1.14994373083056
C           -1.25285365367459        1.19669759424937       -1.66559307058085
C            0.02328882080913        1.14109838590549       -0.90346537688730
N            0.64245319328497       -0.04856748227323       -0.56350949507277
C            2.01152285787172       -0.04522312220607       -0.16336826179156
C            2.94559137730899       -0.55183689098346       -1.28444715161114
C            4.37047203450917       -0.44383617097884       -0.84590753757350
C            5.08659263184660        0.72072556993809       -1.05014135297866
C            6.39751638826859        0.83318234661420       -0.61067709842818
C            7.00938829158285       -0.21738498363383        0.04929645519951
O            8.28676738186286       -0.21652774381688        0.52417798255195
C            9.07780425952995        0.92483535662829        0.31802466684201
C            6.28390015300882       -1.40930629500803        0.27167916547145
O            6.96686821619668       -2.39002225419544        0.92652347677566
C            6.33232138389646       -3.62218146486425        1.14904373097189
C            4.97861017045252       -1.50302663840395       -0.17136823086731
C           -0.04613848361750       -1.30497436954315       -0.63745542849360
C           -3.87345740111573        3.05797185697359        0.60535355021719
C           -4.49385266417239        2.76247805083406        1.97019099349182
C           -3.42479359136373        4.51725582905572        0.55315988492974
H           -4.57512169531471        0.91791063135114       -1.34003750369398
H           -7.04057709245326        0.27459083082923       -2.03474828177886
H           -7.29012058923041       -1.23474181041375       -2.91864469963938
H           -5.88176946650882       -0.22229564323681       -3.28428709202783
H           -4.87990477513523       -3.70063553358656        2.46410747075912
H           -5.23648582191234       -4.97447722124585        1.27583996970833
H           -3.57067450947034       -4.38042642729957        1.45806526401099
H           -3.10629486076377       -2.18192037639312        2.16721287274110
H           -2.17565047196215        0.05223815484515        2.08055815472788
H           -3.01162997692492        2.41918821694426       -1.84462859573993
H           -1.62330725462685        3.25255157773495       -1.15142236285257
H           -1.78930959591719        0.24857446940068       -1.62385456445236
H           -1.03081593565758        1.40877328278353       -2.72230173511788
H           -0.67925931873072        1.63800189078548        0.73430106775232
H            0.66895903082802        1.99854081165349       -0.95237193293278
H            2.13214253167470       -0.67933563459139        0.72260821843281
H            2.30976731986085        0.97005275309605        0.10469424656017
H            2.77567863816781        0.05480182621086       -2.17520772363053
H            2.69174823939349       -1.58696170086143       -1.51904534550803
H            4.63026319992362        1.54991750841588       -1.56971143543793
H            6.93420638970863        1.74973766495882       -0.79677129258725
H            8.65552351763367        1.80548800670641        0.81397915597466
H            9.21292284563135        1.13892542019778       -0.74789362169924
H           10.04403544957027        0.69142915059420        0.76238093230419
H            7.07173248944541       -4.24261957929465        1.65356982920674
H            5.45270605634265       -3.51512166892209        1.79312206128779
H            6.03888668077087       -4.10415320237889        0.20992251857336
H            4.41594568761525       -2.41060839843598       -0.01369953515954
H           -0.22855327139673       -1.61210682572360       -1.67458193869738
H           -1.00807592981062       -1.24561623644879       -0.11936288324611
H            0.56237134706169       -2.06609659699492       -0.15268351267238
H           -4.64807104196736        2.91133411926332       -0.15685490982898
H           -3.75719028048046        2.91529423262609        2.75329365445533
H           -4.85308182543367        1.73719256281335        2.01779496208900
H           -5.33473563369841        3.43068334507675        2.14317472139605
H           -2.63299230280185        4.69188374945251        1.27424681963548
H           -3.07501036900508        4.79717881749624       -0.43721553805622
H           -4.26544380637256        5.15991315076788        0.80579309158352
H           -0.61339262342203        2.84643790285478        2.75278861594258
