72
 energy: 69.247441598798 xtb: 6.6.1 (8d0f1dd)
N           -1.50784324673955        3.05585172939318        2.27597388096975
C           -1.52763598305296        2.23423707226427        1.32819400929066
C           -2.67820053069181        2.05674074143718        0.37717639640555
C           -3.19606855722468        0.62686485331685        0.43671081745651
C           -4.02578659345051        0.15390965302899       -0.56000288817956
C           -4.62208660536711       -1.13479385214250       -0.58930546011876
O           -5.37920640369316       -1.39817742103241       -1.57466986615238
C           -7.22430114032541       -0.39600400977203       -3.29865494502155
C           -4.26836536134548       -1.97494682589835        0.57376653257728
O           -4.78961832607687       -3.24193922125921        0.59064380915117
C           -4.51989374123355       -4.08061478566035        1.67970347206322
C           -3.44695001263510       -1.47870473309175        1.56477901556507
C           -2.90315095546090       -0.20039919562241        1.50754803666513
C           -2.11095657472908        2.35413720261681       -1.03504322302975
C           -1.22047498392511        1.24532342943701       -1.63481011112036
C            0.11312185281448        1.10300196076878       -1.00493568409584
N            0.66232681646066       -0.04068030202893       -0.60955159484546
C            2.04156246901153       -0.07978818327621       -0.18708677042215
C            2.97396901551347       -0.58811067574992       -1.30489567478134
C            4.40557353529811       -0.47763364267875       -0.86636489663479
C            5.11790911279336        0.68751624333342       -1.07398786263601
C            6.43015524691401        0.80572057508292       -0.63445309957007
C            7.04827785116119       -0.24065076427938        0.02800112102519
O            8.31938204252986       -0.23215552659671        0.50910441942666
C            9.10595782044845        0.91579907012472        0.31340831023460
C            6.32603639880329       -1.43716114851929        0.24958996806863
O            7.00977841457469       -2.40916531957034        0.90948299169898
C            6.38248966181182       -3.64441268175632        1.14026132088837
C            5.01866337617367       -1.53454711327548       -0.19392544193761
C           -0.03658196684948       -1.30291691667898       -0.69636336225954
C           -3.87737370747668        3.00080944631989        0.67288951421783
C           -4.48512293792272        2.72253203570316        2.04728537326365
C           -3.51455707856266        4.48074460457121        0.56548910413843
H           -4.31374358048942        0.79594956846425       -1.38399011791456
H           -7.69882795631252        0.39044256248043       -2.77544271078467
H           -7.71228046678030       -1.33753002916273       -3.36963993513650
H           -6.54359341740171       -0.11933160678796       -4.05382983828877
H           -4.87057120127652       -3.65862190076089        2.62949154238862
H           -5.06917497949114       -5.00036989863214        1.47912029226079
H           -3.45252038181682       -4.32022562399547        1.77346052520313
H           -3.20302995221647       -2.08100438256451        2.42322980633987
H           -2.27403209929219        0.14415382054111        2.31235782241047
H           -2.95223444289728        2.51125213124627       -1.71445509114751
H           -1.53729834982797        3.27950131512125       -0.99869580201599
H           -1.76154800234145        0.30074262853712       -1.62144803435348
H           -1.06517182400464        1.52575507592367       -2.68569008069735
H           -0.66368125867091        1.60625525900360        1.03528287176927
H            0.73581963946061        1.98557661870763       -0.93066624097206
H            2.15208467840346       -0.72601575672359        0.69033231034698
H            2.35647137828605        0.92639337245071        0.09325143094547
H            2.80868842593271        0.01644907373039       -2.19804987525541
H            2.72654905949432       -1.62465341088286       -1.54098402912496
H            4.65788067145794        1.51352886838693       -1.59531045246738
H            6.96086447094475        1.72598494783119       -0.81945739489277
H            8.67117967633213        1.79137904935838        0.80682788307852
H            9.24999084329184        1.13353699444502       -0.75022941250587
H           10.06952958653471        0.69001469231840        0.76729049851323
H            7.12370221904411       -4.25575632711590        1.65310529181160
H            5.50010898100209       -3.53650189658100        1.77976530899846
H            6.09631606887589       -4.13619617235723        0.20434990406697
H            4.46093536667488       -2.44529347486599       -0.03604345072091
H           -0.25048440032545       -1.56552802099814       -1.73664466664746
H           -0.98216012547948       -1.25518209427580       -0.14939968803594
H            0.57440486110371       -2.08938169501722       -0.25642931137502
H           -4.64120361055521        2.77358839353142       -0.07977534693055
H           -3.76390886191956        2.95038474477545        2.82708140119274
H           -4.78854199595692        1.68230015068920        2.13304566514945
H           -5.36385829844640        3.34705936186644        2.19241752880716
H           -2.73042824416519        4.72065079924567        1.27503742907494
H           -3.18567201038935        4.74446835060559       -0.43635448484107
H           -4.38800503495368        5.08325214131416        0.80320102224692
H           -0.65408990779236        3.09279318763969        2.82926295652357
