  25
        -42.05698301
 C          3.2159012661        1.1481438948        0.0163737801
 N          2.2743554740        0.0577619242        0.0006845386
 C          2.5601153787       -1.2509396760       -0.0064285797
 N          1.3921465724       -1.9319156549       -0.0074203853
 C          0.3496581990       -1.0526887619        0.0000499025
 C          0.9118554682        0.2197262748        0.0060495637
 C          0.0779461631        1.4085038071       -0.0027295706
 O          0.4681033897        2.5500555955       -0.0159255351
 N         -1.2778851321        1.0773391232        0.0012911196
 C         -2.2368945242        2.1749580275       -0.0020107065
 C         -1.8511218061       -0.1801534366        0.0047629551
 O         -3.0378687078       -0.3486480489        0.0090642954
 N         -0.9696307720       -1.2860308546        0.0012628053
 C         -1.5209424433       -2.6226949490       -0.0027031887
 H          3.7118240840        1.1947300148        0.9874515177
 H          3.9764378067        0.9916679923       -0.7476516201
 H          2.6899576420        2.0834611714       -0.1622967224
 H          3.8695035861       -3.9486698308       -0.0370835054
 H         -1.6859264410        3.1118914924        0.0077324270
 H         -2.8645443560        2.1139397231       -0.8911991151
 H         -2.8808851430        2.1036170381        0.8744942868
 H         -1.1995217921       -3.1699828851        0.8845926222
 H         -1.2121250652       -3.1596819585       -0.9008032428
 H         -2.6068870835       -2.5334779808        0.0053061233
 H          1.3224016377       -2.9385414146       -0.0127671710
