25
 energy: -42.423654455447 xtb: 6.6.1 (8d0f1dd)
C            3.31783856818555        1.24993203577864        0.08036419780609
N            2.37323692793957        0.17052307194513        0.04148861569571
C            2.65390385450061       -1.14393734934598        0.03601571087140
N            1.48601805446966       -1.85176820085246        0.01556513280396
C            0.44845668607529       -0.96634648824194        0.00647283320661
C            0.99942161150042        0.30578442330398        0.02280240317632
C            0.18664748397348        1.49062066451281       -0.00069050324959
O            0.60043819271535        2.64013264243726       -0.00224837030102
N           -1.16615929341144        1.17215850395906       -0.02604358737175
C           -2.12149991647164        2.26355672589533       -0.04304631425375
C           -1.74196786500221       -0.09467066148428       -0.04263584167209
O           -2.93380049763250       -0.23984930767275       -0.07179672694799
N           -0.87652765093120       -1.18452994625307       -0.01676861997712
C           -1.47719932596548       -2.47599510166295       -0.03511757085646
H            3.80161956505882        1.30207910577413        1.05757121111127
H            4.08203377122264        1.10819840742651       -0.68326300276838
H            2.78702537189409        2.18713214575253       -0.09600457720365
H            3.63759369897896       -1.56034193290016        0.04440589253816
H           -1.53866094526557        3.18121409908273       -0.01994158675487
H           -2.72829081518670        2.22163823922149       -0.94661395301240
H           -2.77869361440583        2.20735213421517        0.82398036940952
H           -1.64606128073906       -2.98383688974213        0.89043199984947
H           -1.68322321942991       -2.92609052344046       -0.97959689233786
H           -3.02522439160454       -4.65377516276945       -0.16748816838845
H            1.41774988473951       -2.85819522528903        0.00475058750577
