25
 energy: 0.000000000000 xtb: 6.6.1 (8d0f1dd)
C            3.23720163006194        1.16630919979326        0.08434469647475
N            2.29877817382611        0.07527477071623        0.03981603040599
C            2.58028210190900       -1.21425402444508        0.03006176031096
N            1.43813958087363       -1.93419271955128        0.00098261760884
C            0.39035688448383       -1.05887472636071       -0.00790371836672
C            0.93510056364412        0.21347819449412        0.01709077491437
C            0.09450143893243        1.40504303904423       -0.00410947031874
O            0.49712751527797        2.54126714362870       -0.00342325688240
N           -1.25076640035757        1.06271879480407       -0.03085478223738
C           -2.21907211982101        2.15522099834493       -0.05001256985998
C           -1.81739487048744       -0.20012725993278       -0.04692818574614
O           -2.99983886758376       -0.37846417018721       -0.07008878229737
N           -0.92618586207120       -1.30210215599479       -0.03682761578324
C           -1.46982264913417       -2.64643102187190       -0.06029820460571
H            3.71247264356769        1.21471455160235        1.06488849150277
H            4.00791497605742        1.03430808813993       -0.67357694370751
H            2.69910007168542        2.09770118228144       -0.09130154882931
H            3.56654120610678       -1.63682992603973        0.04233140067262
H           -1.67107961066214        3.09322851271934       -0.02552706933167
H           -2.82428953597071        2.09428624779827       -0.95318082946668
H           -2.87644029173232        2.07745725625962        0.81450067533302
H           -1.17061996399332       -3.19584890659852        0.83242232437030
H           -1.14560257411436       -3.17511610292205       -0.95688275822323
H           -2.55549792440841       -2.55659984320617       -0.07459039797972
H            1.38130855184625       -2.94313852034425       -0.01389874181052
25
 energy: -2.537313276176 xtb: 6.6.1 (8d0f1dd)
C            3.25116828061330        1.18603778704148        0.08555033604968
N            2.31126618479106        0.10493885685715        0.03814306332950
C            2.60313959372656       -1.22145729067466        0.03096959438207
N            1.43122975550714       -1.93122232785159        0.00268870717703
C            0.39202992756545       -1.05327794090358       -0.00649259099493
C            0.93200228810747        0.22744777228053        0.01644884185761
C            0.10946455044666        1.40366218002247       -0.00431236422092
O            0.50925867828100        2.56849606931585       -0.00419253878864
N           -1.25214366990724        1.05976317079292       -0.03029477896510
C           -2.20780555984263        2.16034609566842       -0.04902481858453
C           -1.82194417087679       -0.19082446099233       -0.04670097339389
O           -3.01906331291642       -0.36371530938820       -0.07048727163677
N           -0.94691661067469       -1.30307815915766       -0.03588500504797
C           -1.49820373891185       -2.65641935378360       -0.06061410985979
H            3.73150978489118        1.23310807608239        1.06672118643067
H            4.02093946759005        1.05041841001938       -0.67612594683579
H            2.70971918840311        2.11342660805189       -0.09083787426748
H            3.58343584598538       -1.64379974798160        0.04278843583984
H           -1.64587740241650        3.09177439730364       -0.02464578854859
H           -2.81312677615589        2.10787399466955       -0.95333843751943
H           -2.86515855343038        2.09149187801672        0.81690881400264
H           -1.19594561022461       -3.19073320783151        0.83666454304032
H           -1.17077794068494       -3.16885475365135       -0.96060074195441
H           -2.60683980447729       -2.75166679074266       -0.08473248251024
H            1.37085427254707       -2.93470735099165       -0.01156390283362
25
 energy: 8.397208563190 xtb: 6.6.1 (8d0f1dd)
C            3.26550002127382        1.20676893904098        0.08569105221614
N            2.31810276109919        0.13502898345110        0.03468690371739
C            2.61816210730043       -1.22114176221646        0.03328155645989
N            1.42132771150616       -1.91822416086541        0.00652400342720
C            0.38385026514437       -1.05108924458294       -0.00386189302411
C            0.92189227048965        0.24050273714320        0.01582192749461
C            0.12853808425907        1.39888847769434       -0.00435872896436
O            0.51658809875887        2.58137723941088       -0.00559138609121
N           -1.25382263906102        1.06099864947899       -0.02912126708317
C           -2.18711544667475        2.17672704431501       -0.04723097292972
C           -1.82579838797619       -0.17814234610606       -0.04596218668173
O           -3.02989604198651       -0.33914817289878       -0.07130044900817
N           -0.98212204261982       -1.30861884795107       -0.03408135613236
C           -1.53557359543504       -2.68151593633427       -0.06195552909879
H            3.75707308703161        1.25859334361845        1.06439252953807
H            4.03766096153582        1.07461523538495       -0.67798262944045
H            2.72960229235676        2.13731748364678       -0.08938045866882
H            3.59502276239270       -1.63897051163721        0.04355325582969
H           -1.60322649100636        3.09671878482083       -0.02304772541784
H           -2.79293785588379        2.13704686033775       -0.95221707935192
H           -2.84453787751929        2.12143198409555        0.81994804687772
H           -1.22870341449556       -3.18603985966077        0.84830089014365
H           -1.19947973700914       -3.16231608250716       -0.97277036759020
H           -2.66527121951201       -3.03284583099959       -0.09965442830231
H            1.36737899396724       -2.91893440450709       -0.00664981177188
25
 energy: 21.039053824632 xtb: 6.6.1 (8d0f1dd)
C            3.26952273077887        1.22064490905838        0.08404370973161
N            2.31696007182106        0.14897325453284        0.03250510432283
C            2.61913574067415       -1.21359557779272        0.03646944174983
N            1.41995786364190       -1.90817116089755        0.01114419263632
C            0.37237442179663       -1.05753921740146       -0.00136602276605
C            0.91324119553635        0.24215660733055        0.01615375856739
C            0.13772084634273        1.40123807681631       -0.00429203205399
O            0.51868796989416        2.58543485235373       -0.00654657061707
N           -1.25401825533580        1.06655829223919       -0.02800242285718
C           -2.16751818499095        2.19648444082787       -0.04542870903577
C           -1.83012451591610       -0.17201693547595       -0.04552102428254
O           -3.03626886202596       -0.32038089234450       -0.07236876080973
N           -1.00959019365730       -1.32145281438038       -0.03263110300804
C           -1.56775612805566       -2.71883090485340       -0.06452690338440
H            3.76996174457802        1.27726046017788        1.05943625446751
H            4.04405837454840        1.09400987411600       -0.67992526247380
H            2.74351831762136        2.15839333380961       -0.08878742932622
H            3.59916891716808       -1.62434327676605        0.04432951230903
H           -1.56281335153544        3.10434683139037       -0.02142258825710
H           -2.77298279319338        2.17064089290128       -0.95093686198187
H           -2.82397090026026        2.15575242278452        0.82307417549851
H           -1.25498004628559       -3.19201861881116        0.85864811886121
H           -1.21915025819102       -3.16510519493256       -0.98636051247736
H           -2.69234074970793       -3.22940732750447       -0.11021698757165
H            1.37942071268988       -2.91000372500632       -0.00043718109418
25
 energy: 29.134162461134 xtb: 6.6.1 (8d0f1dd)
C            3.26771103438593        1.22769436614407        0.08215960246717
N            2.31469762810400        0.15262160841105        0.03187739806077
C            2.61588522020434       -1.20411688330181        0.03982365586047
N            1.42551943952262       -1.90208418019146        0.01475671529408
C            0.36549511419724       -1.06442180065664       -0.00002631665892
C            0.90963606720503        0.23922204915397        0.01666126461377
C            0.14152257783809        1.40636257618744       -0.00424579788643
O            0.52192173036609        2.58512842880384       -0.00675341099870
N           -1.25201282564909        1.07222981015503       -0.02719704398985
C           -2.15478220082094        2.21028612477392       -0.04406245587472
C           -1.83178923666363       -0.16932783149573       -0.04558160443899
O           -3.03771983171193       -0.30839684307782       -0.07342497440718
N           -1.02333254113826       -1.33084690421716       -0.03190327458560
C           -1.59112823879283       -2.74978684407290       -0.06679178148503
H            3.77090702664173        1.28569135391915        1.05599770083461
H            4.04224015415127        1.10349629570544       -0.68254883416521
H            2.74677879296324        2.16932678918234       -0.08943564812214
H            3.60060827444818       -1.60822289903924        0.04474241264180
H           -1.53796196629800        3.11010725080642       -0.02019085876562
H           -2.75955873978599        2.19537777782136       -0.94978724315754
H           -2.80990771460095        2.18085253860793        0.82537942245600
H           -1.27448761928800       -3.19790421128624        0.86460173714194
H           -1.23465742152395       -3.16795959401860       -0.99553779606839
H           -2.70156136332003       -3.34039575764281       -0.11632876062896
H            1.39819130750204       -2.90590461849953        0.00484978800996
25
 energy: 31.558373746008 xtb: 6.6.1 (8d0f1dd)
C            3.26540068416246        1.22841736057477        0.08124534862324
N            2.31357425068428        0.15101695653067        0.03210698525101
C            2.61237015112002       -1.19829269475663        0.04221748925291
N            1.43020343171456       -1.89990154935320        0.01606942676333
C            0.36366580975793       -1.06682111052035       -0.00003088518183
C            0.90952010439273        0.23731874139885        0.01663011840657
C            0.14252063610279        1.40916224154022       -0.00429277219688
O            0.52642745559995        2.58327346554150       -0.00668528523048
N           -1.24958626717032        1.07526455379650       -0.02681733151748
C           -2.15114665954214        2.21442134671758       -0.04348467583193
C           -1.83147901703204       -0.16803694415607       -0.04574708812687
O           -3.03646573869109       -0.30336144733675       -0.07411568108833
N           -1.02536386566636       -1.33163038266373       -0.03175473476121
C           -1.60178571957442       -2.76295975733271       -0.06775247359117
H            3.76753541233238        1.28571865343224        1.05507879583456
H            4.03900282105976        1.10372915555614       -0.68393813775194
H            2.74438078780187        2.16994635400559       -0.09036424633586
H            3.59965203267896       -1.59979318127081        0.04442335894780
H           -1.53288602407982        3.11265972018915       -0.01969553602051
H           -2.75547410274209        2.20282176754997       -0.94910496003098
H           -2.80541664525767        2.18831181955729        0.82620196825992
H           -1.28096756154668       -3.19764491243167        0.86623035721045
H           -1.24071690477661       -3.16629205110785       -0.99855514162729
H           -2.70003497062305       -3.37374102748912       -0.11793623124792
H            1.40928456723077       -2.90455847579958        0.00710522813818
25
 energy: 31.437919168915 xtb: 6.6.1 (8d0f1dd)
C            3.26446046225299        1.22724111105139        0.08098539219885
N            2.31326912269278        0.14903058837437        0.03239439425662
C            2.61008074741824       -1.19636931390739        0.04400487357393
N            1.43153245589146       -1.89994010657403        0.01627928384878
C            0.36340840887130       -1.06689848734535       -0.00039110601814
C            0.90975004362755        0.23702954361826        0.01625086046834
C            0.14215285255108        1.40971701852613       -0.00441001566735
O            0.52935439168656        2.58239148130449       -0.00674527642454
N           -1.24838480732902        1.07626703219938       -0.02664428401764
C           -2.15139419521386        2.21449034239963       -0.04332853973984
C           -1.83121177801316       -0.16740576370826       -0.04579886155722
O           -3.03563921662804       -0.30196374414342       -0.07446438227955
N           -1.02410615259011       -1.32891323401733       -0.03164603440421
C           -1.60571050869310       -2.76671734923872       -0.06799069188523
H            3.76546761582400        1.28399216766582        1.05507636808503
H            4.03765164948157        1.10161259434110       -0.68411373787655
H            2.74224604274894        2.16778185053943       -0.09097278183301
H            3.59799680194635       -1.59802518867113        0.04354074698390
H           -1.53467744768044        3.11368719814248       -0.01960432305400
H           -2.75567882480191        2.20222161508958       -0.94884314669785
H           -2.80546109661903        2.18769871586674        0.82634728753522
H           -1.27956688484855       -3.19498181084383        0.86621019865632
H           -1.23989865781532       -3.16288853917273       -0.99907213620214
H           -2.69543338996977       -3.37548204954532       -0.11769257829786
H            1.41200703314570       -2.90454706977925        0.00766238649547
25
 energy: 30.878429271871 xtb: 6.6.1 (8d0f1dd)
C            3.26439872768008        1.22629626104826        0.08098088727562
N            2.31327921471486        0.14806399340232        0.03256775012325
C            2.60904235420331       -1.19654402964594        0.04572307316380
N            1.43084294095617       -1.90067571994290        0.01629928909668
C            0.36325875439686       -1.06650433905722       -0.00072271707454
C            0.90956789805955        0.23741766491815        0.01580618616328
C            0.14140671827422        1.40934927061589       -0.00456393279917
O            0.53048973752538        2.58232636951407       -0.00689552593030
N           -1.24827155524698        1.07658097158027       -0.02656149977033
C           -2.15226606491079        2.21414527010484       -0.04329051658705
C           -1.83138863316560       -0.16694010006589       -0.04583223914135
O           -3.03572540513371       -0.30166555119628       -0.07463407712100
N           -1.02319738254479       -1.32606085531387       -0.03152558294324
C           -1.60720713217936       -2.76763448561334       -0.06804123542407
H            3.76501499966704        1.28299578256551        1.05521230189504
H            4.03763224685101        1.10012692981398       -0.68387454308191
H            2.74138033078125        2.16619067478746       -0.09125111675731
H            3.59668479980839       -1.59925244361919        0.04221523841047
H           -1.53662646164208        3.11427802352108       -0.01960589353093
H           -2.75669894395216        2.20059181278457       -0.94877676330895
H           -2.80645096892201        2.18608176920272        0.82635127242461
H           -1.27588862230889       -3.19278407944029        0.86560066391602
H           -1.23686278236127       -3.16027230628777       -0.99871169651872
H           -2.69093133248979       -3.37205697043479       -0.11723902343330
H            1.41073122987552       -2.90502531106967        0.00780359710070
25
 energy: 30.591061957807 xtb: 6.6.1 (8d0f1dd)
C            3.26460680407784        1.22598104144500        0.08107153514682
N            2.31333029665393        0.14800922030310        0.03265511396782
C            2.60895422020600       -1.19740514520452        0.04723359262282
N            1.42970880378689       -1.90122164334302        0.01638767946915
C            0.36308811490792       -1.06627765139291       -0.00091832031052
C            0.90926533488046        0.23775465151362        0.01552235781603
C            0.14087532277267        1.40894640883148       -0.00469444530149
O            0.53033370237404        2.58251664429522       -0.00703413130547
N           -1.24868559152951        1.07678664798271       -0.02654892543057
C           -2.15275097371729        2.21427079731977       -0.04329925533911
C           -1.83174782912205       -0.16658441014292       -0.04585811704999
O           -3.03621828859921       -0.30161251552445       -0.07467387628631
N           -1.02320692246854       -1.32456323448175       -0.03144644279329
C           -1.60749384375280       -2.76768705650194       -0.06805824161565
H            3.76535512780273        1.28287586377338        1.05530324366011
H            4.03800519478520        1.09974125246628       -0.68366586457464
H            2.74143995597824        2.16577247139972       -0.09126112871099
H            3.59611561560461       -1.60093964756583        0.04073405879703
H           -1.53724612846012        3.11459869935112       -0.01962449109368
H           -2.75729656093965        2.20011401279809       -0.94879721821929
H           -2.80706973099608        2.18562321050677        0.82632639505679
H           -1.27321597685374       -3.19196237141839        0.86499838911075
H           -1.23452504474753       -3.15927531569792       -0.99821179458819
H           -2.68812702395789       -3.37099233925145       -0.11705125890937
H            1.40872008925006       -2.90544098928917        0.00794504202850
25
 energy: 30.478894529847 xtb: 6.6.1 (8d0f1dd)
C            3.26472975721792        1.22590475928039        0.08122876378041
N            2.31324498927438        0.14827111753042        0.03278417118619
C            2.60920598138716       -1.19841571356565        0.04940054907465
N            1.42857451399822       -1.90156846306387        0.01662161832842
C            0.36289245946903       -1.06624379099282       -0.00111662390422
C            0.90896670477872        0.23784179714262        0.01530942887382
C            0.14047928922501        1.40866209335600       -0.00484726498674
O            0.52962393920470        2.58261720596875       -0.00718385862226
N           -1.24925876177117        1.07708498042359       -0.02659139584979
C           -2.15295808406422        2.21474991847413       -0.04334269749990
C           -1.83215553337274       -0.16626822894775       -0.04588168272518
O           -3.03679935360067       -0.30156241189831       -0.07464347196112
N           -1.02369566195051       -1.32386138005387       -0.03140453186520
C           -1.60733357021468       -2.76753920094592       -0.06809042311501
H            3.76580745838149        1.28304876511338        1.05538280135154
H            4.03827346381924        1.09978871153804       -0.68351550047017
H            2.74179078172791        2.16587954069497       -0.09113423035813
H            3.59589118958105       -1.60248437234822        0.03835002532818
H           -1.53715870795565        3.11484194875299       -0.01966244173578
H           -2.75755610896900        2.20051235080792       -0.94885566436861
H           -2.80736086544640        2.18603625328888        0.82627139444623
H           -1.27132385489966       -3.19176826510867        0.86450709985083
H           -1.23275817059639       -3.15897927903862       -0.99779230470499
H           -2.68573631926997       -3.37174223131331       -0.11703471304824
H            1.40682913198241       -2.90577750292305        0.00827484914241
25
 energy: 30.485555004570 xtb: 6.6.1 (8d0f1dd)
C            3.26455633953959        1.22588259275363        0.08131345471657
N            2.31303902774882        0.14830024281210        0.03291527737789
C            2.60924751895137       -1.19849347289007        0.05083021714643
N            1.42855390717626       -1.90151945580312        0.01679203471544
C            0.36283595005348       -1.06634093843574       -0.00124054786125
C            0.90896056100181        0.23760793312983        0.01528082489471
C            0.14047122994116        1.40872745863620       -0.00492716202495
O            0.52940041644087        2.58246969643940       -0.00723749471650
N           -1.24931902573519        1.07714868722223       -0.02665769537337
C           -2.15286898729762        2.21489538215654       -0.04337648825042
C           -1.83223461479919       -0.16629447306765       -0.04589249821817
O           -3.03687087918132       -0.30154983632285       -0.07458307836718
N           -1.02389867248834       -1.32416266511107       -0.03146048101283
C           -1.60708435372052       -2.76736417934823       -0.06811835764762
H            3.76569907543811        1.28302750933618        1.05542408770440
H            4.03804749300705        1.09977339486484       -0.68350723432470
H            2.74180820990240        2.16598281510432       -0.09105726400566
H            3.59594599592556       -1.60238697958878        0.03671622005676
H           -1.53691082889152        3.11480464103514       -0.01968795730213
H           -2.75743743919600        2.20091509966432       -0.94888695899720
H           -2.80723815498184        2.18642068477623        0.82624169817314
H           -1.27138898205502       -3.19184439328390        0.86454168842548
H           -1.23269912530673       -3.15909972443128       -0.99782652037602
H           -2.68530159095576       -3.37208702619869       -0.11711262762331
H            1.40690159741877       -2.90578439127758        0.00855075903778
