25
 energy: -42.136167720436 gnorm: 0.002477981288 xtb: 6.6.1 (8d0f1dd)
C            3.90451802929901        3.09448473957871        0.05839755743385
N            2.20737811738101       -0.80083305888304       -0.01444505593610
C            2.21230523104663       -2.09956004627012       -0.02210366314070
N            0.94540177446733       -2.62162441819831       -0.02341735830112
C            0.09851912021499       -1.56200630856325       -0.01660685963403
C            0.90816221680876       -0.41783085526300       -0.01061994948514
C            0.31984860253845        0.90164270550783       -0.00096396027074
O            0.91841221076531        1.95421370292233        0.00640357783166
N           -1.07553029328288        0.85011814573645       -0.00001451539346
C           -1.79912908664077        2.11183548357533        0.00879210436601
C           -1.88276695973436       -0.27458335006683       -0.00721214101674
O           -3.08253344955195       -0.19669495139755       -0.00734128284541
N           -1.24449288065458       -1.52614881528273       -0.01440081237568
C           -2.05217017409304       -2.72686642309201       -0.02007754612649
H            4.37791439041931        3.34749983795983        0.98790775000244
H            4.48242018416532        3.08992217551453       -0.84601946723784
H            2.86906044151889        2.79578193458153        0.04030275210478
H            3.09721236475106       -2.70380960370288       -0.02672238095509
H           -1.07347320409318        2.92199073265540        0.00391892538596
H           -2.44484656652890        2.17510883088442       -0.86788105721561
H           -2.42891475983273        2.17238156727636        0.89727770843785
H           -1.85838385118803       -3.31974881572342        0.87498439517683
H           -1.84280508700681       -3.32156567191501       -0.91020494758099
H           -3.09892544916548       -2.42419463639593       -0.02903939452241
H            0.70325059254442       -3.60127435985024       -0.02974276076851
