25
 energy: 42.049548036906 xtb: 6.6.1 (8d0f1dd)
C            3.42483590124576        1.49725183262398        0.08094043714334
N            2.56766560042059        0.33546810128642        0.07426178689625
C            2.96156299647481       -0.93211111208542        0.05457602766484
N            1.89246139687242       -1.76391666467034        0.00963486462980
C            0.75316450234387       -0.98481282551127        0.00306479775260
C            1.20387394108993        0.34261562404081        0.04281737230216
C            0.26269475925969        1.45123333815351        0.01605594416488
O            0.59533075098059        2.63138032571559        0.01863341552165
N           -1.01764430029195        0.97773831395040       -0.02716480385484
C           -2.09504141392723        1.95655620955372       -0.05250486394109
C           -1.43259172065216       -0.40570212815309       -0.04136862129803
O           -2.63276055417039       -0.54435171316191       -0.06308944734575
N           -0.49263075194330       -1.37801226411639       -0.03327981580857
C           -2.93686307530558       -3.29595094016974       -0.10323477958265
H            3.91615924900566        1.60603548897095        1.04966363524628
H            4.19332014724977        1.38827683575391       -0.68731000297072
H            2.84147033531096        2.40304292346860       -0.10942914291852
H            3.97894306072892       -1.25671678399347        0.04947499104920
H           -1.60469477364750        2.92347147984536       -0.02392970634686
H           -2.69650874115048        1.85740100335910       -0.95728213730722
H           -2.75413757811541        1.83286463019361        0.80781495137273
H           -2.67078437985437       -3.74949775280986        0.80768968587629
H           -2.64636286533866       -3.70564459384819       -1.02850448745242
H           -3.49537169806093       -2.39861882672096       -0.09000694577394
H            1.96699164663466       -2.77493456850999        0.00033211571768
