25
 energy: 10.066288134302 xtb: 6.6.1 (8d0f1dd)
C            3.26055512817067        1.29507347559872        0.09442286195216
N            2.38387860045303        0.15437407700186        0.01930139135097
C            2.73589914412453       -1.18584837652709        0.04142324967109
N            1.58512723305813       -1.93639061873097        0.01574535371330
C            0.47863813334011       -1.16318858206327       -0.00985342759941
C            0.98082391862972        0.16907046757783        0.00143213238011
C            0.17561113221687        1.32035539260079       -0.01543013679123
O            0.51611152512131        2.50869445614473       -0.01657885353004
N           -1.20280691906417        0.95960207981656       -0.03463184423195
C           -2.16796101800251        2.05993298242908       -0.04978376692837
C           -1.72000788881030       -0.29437250651420       -0.04926372173929
O           -2.93221307002354       -0.40778579434976       -0.07135527484431
N           -0.90580764946922       -1.47169566020925       -0.04019712591737
C           -1.83054099144243       -2.68769263381584       -0.07057680162437
H            3.78203791293818        1.33772924295880        1.05852576040861
H            4.02306892658751        1.24601771946300       -0.69229386301607
H            2.66789400080826        2.21404508286644       -0.01313526510686
H            3.73163089194774       -1.56825990506412        0.05326310372297
H           -1.60016273360441        2.99000839800386       -0.02694258693602
H           -2.77344856343023        2.01161716811309       -0.95322979100103
H           -2.81672381926149        1.99656788091250        0.82118262848639
H           -1.69755696875409       -3.31642809451339        0.81268303717213
H           -1.66833165225719       -3.29595778711665       -0.96229552012312
H           -2.83115373112486       -2.27322614549525       -0.08297275913172
H            1.59550715005484       -2.93992086292111        0.01094359172807
