25
 energy: -6.051713852603 xtb: 6.6.1 (8d0f1dd)
C            3.24836258078667        1.19128179989481        0.08807008563128
N            2.31756472665823        0.11057738327003        0.03348761919313
C            2.62274090297414       -1.23356083492558        0.03274643856879
N            1.44544638821869       -1.93551449952329        0.00320687093766
C            0.41296363039144       -1.07023819040715       -0.00877730080663
C            0.92931608262157        0.22454763569531        0.01131643361409
C            0.12262411364451        1.38177178560660       -0.00644974113646
O            0.49289329623146        2.56097912972538       -0.00542956696900
N           -1.26272801722873        1.03623560873318       -0.03158121156206
C           -2.21613127468300        2.13480957781975       -0.04957065736967
C           -1.80531433678385       -0.21232600782455       -0.04752015392616
O           -3.00688167569165       -0.39814891463483       -0.07004092164367
N           -0.93090190458339       -1.32307602187226       -0.03762063297578
C           -1.52986677627512       -2.64320725461427       -0.06174577796723
H            3.73022411095190        1.23643544088416        1.06963160866566
H            4.01970278768642        1.06859685821165       -0.67642452165776
H            2.70176559833523        2.11995932091800       -0.08123483716187
H            3.60019254118364       -1.64998747441912        0.04366459866918
H           -1.65650290550447        3.06905577987726       -0.02559588648335
H           -2.82139605321596        2.07895921378158       -0.95404904620588
H           -2.87197896264356        2.06169771534064        0.81737931539979
H           -1.25615933111683       -3.21547115885308        0.82862301412634
H           -1.23067502600674       -3.19481355178678       -0.95704277404332
H           -2.60836510605346       -2.50594481891528       -0.07577488683897
H            1.40248731543872       -2.93885150575967       -0.00895135679870
