25
 energy: 90.892610701825 xtb: 6.6.1 (8d0f1dd)
C            2.96024184464644        1.22774871443919        0.10806670985392
N            2.16721211596584       -0.01683500562495        0.05400126555113
C            2.53737625857281       -1.29559129774397       -0.03416096270897
N            1.43925794775533       -2.09856820776480       -0.07105947416860
C            0.26882116055409       -1.32041879642410        0.00392940101595
C            0.78358886086588        0.00052706759499        0.08655611673923
C           -0.04854887626663        1.11254095634810        0.32299944655236
O            0.35044017970950        2.25016578327980        0.54584901092332
N           -1.36770156873237        0.79134160917435        0.29041125484171
C           -1.94521954856905        3.12987300248000       -0.32319841030056
C           -2.40349102246899        0.26599854644063       -0.01610160116626
O           -3.52224762756052        0.44018670950203       -0.25382866884489
N           -0.96491822969012       -1.66486351014914        0.00459338792334
C           -1.25601190608958       -3.05093109046619       -0.02454468918178
H            3.61697660809995        1.27469638569419        0.97342722073473
H            3.57083882125192        1.41759793616920       -0.78309511909871
H            2.24970466434234        2.06143607140937        0.19577938750399
H            3.52168192671541       -1.71682581537447       -0.09242792938851
H           -0.94764312778404        3.09424304517279       -0.70671793180740
H           -2.76930007436206        3.05858076677479       -0.97947834760222
H           -2.17339427874392        3.30117108056089        0.70299321665106
H           -0.81550412385353       -3.53231216410624        0.85408044174716
H           -0.80703329561477       -3.48793949076622       -0.92020630734666
H           -2.34977724849069       -3.12953003702527       -0.04185063999797
H            1.45368653524709       -3.10193528311264       -0.14528884004958
