25
 energy: 99.871474249941 xtb: 6.6.1 (8d0f1dd)
C            2.85854764072197        1.23878019243294        0.11720466067419
N            2.13630476208216       -0.03380220638703        0.04272607385394
C            2.55985307686906       -1.28219551325795       -0.05969112441222
N            1.52649296339657       -2.15006608285994       -0.07988573118733
C            0.31852421536927       -1.43899379805718        0.00315385866400
C            0.76706176226489       -0.08454246564103        0.08799515636793
C           -0.11148454574563        0.94734012972683        0.37349522105568
O            0.13049167566988        2.10467088506102        0.66558213701808
N           -1.36629414411311        0.32369883159074        0.38999446941242
C           -2.00377166815916        3.44381436087643       -0.36696890644482
C           -2.46995586791893        0.34145235076894       -0.02833727164735
O           -3.45667478022812        0.89341312039423       -0.32028022227609
N           -0.88064089538837       -1.83930517796132        0.00446439174598
C           -1.14463655264187       -3.22235595625684       -0.00787131556446
H            3.58600851488395        1.24398901935395        0.92000372609563
H            3.37408930364253        1.51725911971556       -0.80705763828327
H            2.11606821928860        2.02071876901386        0.31865508420769
H            3.55930182694426       -1.64065130231446       -0.14535609798221
H           -1.20866217352707        2.89461138337145       -0.78976326269564
H           -2.93713885716820        3.46239080487834       -0.84730678248387
H           -1.88277891190163        3.68869429960591        0.65442413431669
H           -0.67566329420121       -3.65959410849137        0.87711761038882
H           -0.67747590778576       -3.62816342182246       -0.90557464949319
H           -2.23884373079646       -3.31649651544732       -0.02192553890496
H            1.59781151021987       -3.14815235992984       -0.16109294572792
