25
 energy: 98.975501139184 xtb: 6.6.1 (8d0f1dd)
C            2.74707085447776        1.21631546456453        0.11754526654968
N            2.10239700388661       -0.06450327806048        0.08070775520753
C            2.70632555839615       -1.25946279730399       -0.02519169035798
N            1.75893592789905       -2.24130097046001       -0.04018301441917
C            0.52785976701764       -1.64585452729972        0.05881891690212
C            0.74024823137407       -0.27285845993230        0.13419749480717
C           -0.39873163226553        0.62091993970577        0.18510351654120
O           -0.30257856095062        1.87217929051938        0.22519250468653
N           -1.57514458699199       -0.01875060432930        0.16707687807031
C           -2.66391505382096        4.14346183781218       -0.36072983564296
C           -1.79124982678335       -1.30833486185977        0.12097287396111
O           -2.63255396726147        2.87239081956101       -0.10752288145082
N           -0.69452286026130       -2.18538786935353        0.06493183397305
C           -0.92855740592513       -3.61060864927985       -0.01241357254181
H            3.42343893267918        1.27866057940460        0.97180599353120
H            3.31853465945153        1.38073070586251       -0.79792501804207
H            1.97702149142287        1.98244339909050        0.20736036407878
H            3.75660654355044       -1.42142456867601       -0.08950436770300
H           -1.68726593936819        2.48241220652206        0.08913208492484
H           -3.63111264323112        4.56237473884101       -0.58528158766761
H           -1.77862816710425        4.75856544480444       -0.37119699795857
H           -0.51577547774192       -4.12215241699136        0.86123920191898
H           -0.48694545588603       -4.02909359258325       -0.92060168931317
H           -2.00550052602643       -3.77550267848572       -0.03810549033278
H            1.94625743844178       -3.22619036332678       -0.10839462752296
