25
 energy: 63.420680329266 xtb: 6.6.1 (8d0f1dd)
C            2.99848357886548        1.22346831186652        0.10869707659917
N            2.16504819079353        0.00828848062593        0.06368461850011
C            2.52859841460838       -1.28756827827509       -0.02670920052601
N            1.40174943254827       -2.06547864898264       -0.08541839657676
C            0.25548777790061       -1.26555113542228        0.01410317700167
C            0.76430723889179        0.04850329369290        0.09267734465173
C           -0.03363697017521        1.20604821051231        0.24847992667445
O            0.46775509426013        2.31492145538448        0.47052261358729
N           -1.41905360370796        1.15264171914547        0.04626617281132
C           -1.89100994184434        2.66384102685792       -0.20803750972786
C           -2.33588708551964        0.19634433119434        0.03242487896579
O           -3.48042616892752        0.37360522630467       -0.25112204260972
N           -0.99421315842307       -1.58887069803925        0.03990223062359
C           -1.30095924482458       -2.97759555420648       -0.02755088863583
H            3.63318631575601        1.27436606492048        0.99263382929542
H            3.63739448344448        1.36972565954096       -0.77091715914671
H            2.31066113897204        2.07728066121441        0.15779621554144
H            3.51376205793389       -1.71944284456738       -0.06498634130744
H           -0.95734179178533        3.09829535453519       -0.54796327688901
H           -2.68570423467758        2.80291045284089       -0.93817352708149
H           -2.26522542714302        3.12008005192988        0.71553870571458
H           -0.87195426951729       -3.48051322639900        0.84520233648000
H           -0.85644175591682       -3.42046066852320       -0.92501218458451
H           -2.39138951316990       -3.05401527872730       -0.04865677791387
H            1.40095816077908       -3.07155366418453       -0.13136424597686
