25
 energy: 99.226529932197 xtb: 6.6.1 (8d0f1dd)
C            2.75303817762381        1.21886236092046        0.10819643889283
N            2.12773297600898       -0.07281839466069        0.07025912903990
C            2.73117345374395       -1.26907255510654       -0.02312267587094
N            1.77299138792801       -2.24542732737492       -0.03493984178492
C            0.53425726597315       -1.64845640591594        0.05255707378811
C            0.76432621037231       -0.27812182373578        0.12855088283417
C           -0.37272922124094        0.61306772997457        0.20856021769231
O           -0.28785551980348        1.86727794272364        0.22251150341786
N           -1.54721119368493       -0.02881498168198        0.24575345379871
C           -2.67302374043869        4.13936767175149       -0.36291410338471
C           -1.80573246240102       -1.31381248019933        0.12988800421135
O           -2.63710941482783        2.86203676347165       -0.10431392733513
N           -0.68824246214118       -2.18852296572015        0.04975945643111
C           -0.91322613925800       -3.61865007867405       -0.01355576662161
H            3.41697397919859        1.29124934753541        0.97136753744136
H            3.30921762983333        1.39916734257324       -0.81226429227856
H            1.96604067792719        1.96683972519151        0.18519615142517
H            3.78297517496740       -1.43464614868198       -0.08381322353955
H           -1.68042833890463        2.50535713579888        0.10175394228773
H           -3.64598199844177        4.54422633665903       -0.56003312672198
H           -1.79170226976295        4.74456726536532       -0.39032530412892
H           -0.50175147591398       -4.13386332732155        0.85937987703610
H           -0.48135564660161       -4.04553041237630       -0.92133722224461
H           -1.98928303134070       -3.78601781402441       -0.01792218462587
H            1.96362862177753       -3.23060442367925       -0.10552792239115
