  25
        -42.13718864
 C          3.3625955743        0.5922111845        0.0051714019
 N          2.2483913349       -0.3147609280       -0.0057828444
 C          2.3025787389       -1.6514767360       -0.0001536744
 N          1.0434976818       -2.1614046891        0.0031696753
 C          0.1658340091       -1.1175607355        0.0001660973
 C          0.9188489420        0.0536848047       -0.0042234857
 C          0.3212753269        1.3494751477       -0.0069858937
 O          0.8807301659        2.4282348280       -0.0190080903
 N         -1.1174935575        1.2675387957        0.0066158021
 C         -1.7937990527        2.4271053104        0.0188642736
 C         -1.8851381628        0.0721324870        0.0018577216
 O         -3.0886601439        0.1036473115        0.0033450710
 N         -1.1847603055       -1.1328370998       -0.0008473616
 C         -1.9306352078       -2.3764470468       -0.0132887778
 H          3.8853831019        0.5423135639        0.9620781442
 H          4.0642677791        0.3415179869       -0.7903196809
 H          2.9901841283        1.6056768861       -0.1403066596
 H          3.1991967381       -2.2365662505        0.0010660872
 H         -0.5851593975        5.2895472267        0.1455504143
 H         -1.2294569648        3.3516450143        0.0274577487
 H         -2.8677174839        2.3973486442        0.0264439942
 H         -1.7301338663       -2.9504375177        0.8921156160
 H         -1.6736522223       -2.9641291130       -0.8951647644
 H         -2.9905757640       -2.1280169279       -0.0476291665
 H          0.8164898527       -3.1446499265        0.0067123439
