72
 energy: -99.585454429210 xtb: 6.6.1 (8d0f1dd)
N           -2.03970573273839        2.98181047776024        1.94214175855018
C           -1.71555173647152        2.72870705659637        0.73578547148736
C           -2.46593396740446        2.04104801954175       -0.26075040121916
C           -3.12940976970441        0.78221524697799        0.00917841732465
C           -4.15508100257644        0.33234297614863       -0.83875360924352
C           -4.83184466733499       -0.85164360618308       -0.61367992984959
O           -5.85100377177937       -1.32061645831905       -1.40282259811293
C           -6.29558340628597       -0.50931623207037       -2.44303053512126
C           -4.49539915607794       -1.68446841672270        0.48193685308269
O           -5.23672517641193       -2.83976903494907        0.61867697286564
C           -4.96020338967332       -3.67229073036273        1.71584159147334
C           -3.46198891527969       -1.27552783218261        1.30892311494036
C           -2.80099644173080       -0.06367292561572        1.08565652368837
C           -1.95456880874698        2.20437211217656       -1.66951649572038
C           -1.02407403166291        1.01568919197266       -2.14464044990339
C            0.29452510547327        0.96504207703851       -1.49878724793490
N            0.83449189176757       -0.13916415757296       -0.91102495420162
C            2.17499618404711       -0.11214173470523       -0.40148929504399
C            3.15670798676303       -0.75552253484707       -1.40308541770742
C            4.56542332997757       -0.59838838116761       -0.91661331190562
C            5.26882123302970        0.57015688776700       -1.14256984972596
C            6.56500618729193        0.71911913957844       -0.66432475921216
C            7.17652374369688       -0.28936322380653        0.05979416437995
O            8.44672312632222       -0.23904649814324        0.55792054230583
C            9.21577089653073        0.90803735989072        0.29346622285345
C            6.46108130878392       -1.47953963502028        0.31659354807143
O            7.13264168157176       -2.42065494441666        1.04342271368208
C            6.49648216119113       -3.63678331664097        1.33695563153406
C            5.17258885301167       -1.61174804853564       -0.17340884486982
C            0.08173593401792       -1.35633183581938       -0.72472611378063
C           -4.80741815590901        3.10147802508406        1.21150500186879
C           -4.68258060719017        1.98988649427414        2.13619446062996
C           -4.52620263514544        4.43027597964651        1.69798144906256
H           -4.41958958890376        0.97186148710357       -1.66325439447452
H           -6.64022789531072        0.46108533559328       -2.06758846162780
H           -7.12783116347448       -1.04472915894243       -2.90161074497800
H           -5.50514749526883       -0.34216060927865       -3.18740877228315
H           -5.12263190053676       -3.14974833046416        2.66179928695040
H           -5.65972395128483       -4.50674170390758        1.65789303828823
H           -3.93305184019826       -4.06000845390929        1.69953583329455
H           -3.15964163796847       -1.89884816490750        2.13974281585139
H           -2.00930224603441        0.22301152885864        1.76411356647351
H           -2.79675580545134        2.28403555827104       -2.36852660668132
H           -1.37631255139311        3.12604012140213       -1.77125556288480
H           -1.56268357370638        0.07385266698638       -2.04888155342123
H           -0.89557061666190        1.23165430374475       -3.20418869830249
H           -0.72543132879938        2.96432600820086        0.31873654731987
H            0.95080669594699        1.81435355872374       -1.61531629738710
H            2.29953512392988       -0.62698351540108        0.55210475499446
H            2.47246928657197        0.92200209077752       -0.23302127540567
H            3.03100626950461       -0.26451426300577       -2.36811838097585
H            2.92167842805304       -1.82137732192207       -1.52180506969600
H            4.81617096712924        1.36584355068406       -1.71294084980216
H            7.10723642824552        1.62658524484183       -0.87367534735862
H            8.76261543611141        1.80336106315848        0.72659151841068
H            9.36704091530195        1.05845913159136       -0.78185503343921
H           10.18171783291168        0.74864047245779        0.76297223252435
H            7.21458186103004       -4.23873682958041        1.89820900163932
H            5.61027263397958       -3.48150124263754        1.95936479993423
H            6.21939629391538       -4.16779113720343        0.42100889185274
H            4.62129983579163       -2.51857715562844        0.02397132597312
H           -0.06156245918924       -1.87471268554703       -1.68079649653716
H           -0.90696940227833       -1.16903138959378       -0.29102838360726
H            0.63845897402546       -2.00725318410974       -0.04671569305583
H           -5.32986326872067        3.06951372575046        0.28691828458487
H           -3.56355278347151        2.04021580749092        2.20911380303835
H           -5.08551982087360        1.05747828726875        1.79227753547824
H           -5.23309270427335        2.32270435517487        3.00072545203825
H           -4.06797172657313        4.38851724819089        2.66479135458053
H           -3.93196323282845        5.11652700073931        1.06494257688339
H           -5.54194337178420        4.80270083817998        1.74319196951529
H           -1.43693565457999        3.60389817396183        2.45486918785289
